<?xml version="1.0" encoding="UTF-8"?>
<!-- generated on 2020-12-16 21:26:56.451839 by $Id$
  options: -n mf_base.net.xml -e 10
-->
<routes xmlns:xsi="http://www.w3.org/2001/XMLSchema-instance" xsi:noNamespaceSchemaLocation="http://sumo.dlr.de/xsd/routes_file.xsd">
    <trip id="0" depart="0.00" from="33487028#4" to="-86414058"/>
    <trip id="1" depart="1.00" from="158399739#0" to="-80737020#0"/>
    <trip id="2" depart="2.00" from="-157964859#0" to="80737020#2"/>
    <trip id="3" depart="3.00" from="-31344484" to="-155546692"/>
    <trip id="4" depart="4.00" from="33487028#3" to="5785422"/>
    <trip id="5" depart="5.00" from="-158399779#1" to="-421145355#1"/>
    <trip id="6" depart="6.00" from="-33487027" to="4662541#2"/>
    <trip id="7" depart="7.00" from="-332176204" to="351235033"/>
    <trip id="8" depart="8.00" from="-33487028#4" to="-5785422"/>
    <trip id="9" depart="9.00" from="157964860#0" to="151542344#2"/>
</routes>
