<?xml version="1.0" encoding="UTF-8"?>

<!-- generated on 2021-12-14 17:49:40 by Eclipse SUMO duarouter Version 1.11.0
<configuration xmlns:xsi="http://www.w3.org/2001/XMLSchema-instance" xsi:noNamespaceSchemaLocation="http://sumo.dlr.de/xsd/duarouterConfiguration.xsd">

    <input>
        <net-file value="hm_map.net.xml"/>
        <route-files value="hm_map.trips.xml"/>
    </input>

    <output>
        <output-file value="hm_map.rou.xml"/>
        <alternatives-output value="hm_map.rou.alt.xml"/>
    </output>

    <report>
        <ignore-errors value="true"/>
    </report>

</configuration>
-->

<routes xmlns:xsi="http://www.w3.org/2001/XMLSchema-instance" xsi:noNamespaceSchemaLocation="http://sumo.dlr.de/xsd/routes_file.xsd">
    <vehicle id="0" depart="0.00">
        <route edges="312549779#2 312549779#3 -851177627#0 -292630184#2 -292630184#1 -278513971#5 -278513971#4 -278513971#2 -278513971#1 -278513971#0 38349617#0 38759699#1 38759699#3 38759699#4 38759699#5 -501462498#3 -501462498#1 -501462498#0 163989140#0 163989140#1 163989140#2 163989140#4 163989140#5 163989140#6 163989140#7 163989140#8 163989140#9 163989140#10 -163989140#10 -163989140#9 -163989140#8 -163989140#7 -163989140#6 -163989140#5"/>
    </vehicle>
    <vehicle id="1" depart="1.00">
        <route edges="-4520029#5 -4520029#4 -4520029#3 -4520029#2 -4520029#1 -292630184#1 -278513971#5 -278513971#4 -278513971#2 -278513971#1 -278513971#0 38349617#0 -163989143#2 -163989143#0 -4060426#4"/>
    </vehicle>
    <vehicle id="2" depart="2.00">
        <route edges="392103885#2 312549779#0 312549779#2 312549779#3 -851177627#0 -292630184#2 -292630184#1 -278513971#5 -278513971#4 -278513971#2 -278513971#1 -278513971#0 38349617#0 37280968#1 37280968#2"/>
    </vehicle>
    <vehicle id="3" depart="3.00">
        <route edges="4520030#7 -278513971#5 -278513971#4 -278513971#2 -278513971#1 -278513971#0 38349617#0 38759699#1 38759699#3 38759699#4 38759699#5 30816697#3 -272429536#1"/>
    </vehicle>
    <vehicle id="4" depart="4.00">
        <route edges="151850904#0 151850904#2 -501462498#3 -501462498#1 -501462498#0 163989140#0 163989140#1 163989140#2 163989140#4 163989140#5 163989140#6 163989140#7 163989140#8 163989140#9 163989140#10 -163989140#10 -163989140#9 -163989140#8 -163989140#7 -163989140#6"/>
    </vehicle>
    <vehicle id="5" depart="5.00">
        <route edges="-4060426#3 -4060426#2 -4060426#1 4060426#1 4060426#2 4060426#3 4060426#4 163989143#0 163989143#1 38759699#1 38759699#3 38759699#4 38759699#5 -501462498#3 -501462498#1 -501462498#0 163989140#0 163989140#1 163989140#2 163989146#0 163989146#1"/>
    </vehicle>
    <vehicle id="6" depart="6.00">
        <route edges="-163989140#4 -163989140#2 -163989140#1 -163989140#0 501462498#0 501462498#1 501462498#2 38349616#1 38349616#2 -163989143#2 -163989143#0 -4060426#4 -4060426#3 -4060426#2 -4060426#1 -4060426#0"/>
    </vehicle>
    <vehicle id="7" depart="7.00">
        <route edges="312549780 851113019#2 -39322226#2 -39322226#1 -39322226#0 -851177627#0 -292630184#2 -292630184#1 24998362#1 24998362#2 24998362#3 24998362#4 24998362#5 24998362#7 24998362#10 24998362#11"/>
    </vehicle>
    <vehicle id="8" depart="8.00">
        <route edges="-4060426#3 -4060426#2 -4060426#1 4060426#1 4060426#2 4060426#3 4060426#4 163989143#0 163989143#1 -38349617#1 278513971#0"/>
    </vehicle>
    <vehicle id="9" depart="9.00">
        <route edges="4520029#10 -4520029#10 -4520029#9 -4520029#8 -4520029#7 -4520029#5 -4520029#4 -4520029#3 -4520029#2 -4520029#1 -292630184#1 -278513971#5 -278513971#4 -278513971#2 -278513971#1 -278513971#0 38349617#0 38759699#1 38759699#3 38759699#4 38759699#5 -501462498#3 -501462498#1 -501462498#0 163989140#0 163989140#1 163989140#2 -163989140#2 -163989140#1"/>
    </vehicle>
    <vehicle id="10" depart="10.00">
        <route edges="4520029#1 4520029#2 4520029#3 4520029#4 -4520029#4 -4520029#3 -4520029#2 -4520029#1 -292630184#1 -278513971#5 -278513971#4 -278513971#2 -278513971#1 -278513971#0 38349617#0 38759699#1 38759699#3 38759699#4 38759699#5 38349616#1 38349616#2"/>
    </vehicle>
    <vehicle id="11" depart="11.00">
        <route edges="-4645396#0 4645396#0 4645396#1 4645396#3 4645396#4 312549780 -312549780"/>
    </vehicle>
    <vehicle id="12" depart="12.00">
        <route edges="58312556#0 58312556#1 58312556#2 58312556#3 58312556#4 501462498#0 501462498#1 501462498#2 38349616#1 38349616#2 -38349617#1 278513971#0 278513971#1 278513971#2 278513971#4 278513971#5 292630184#1 4520029#1 4520029#2 4520029#3 4520029#4 4520029#5 4520029#7 4520029#8 4520029#9 4520029#10 -4645396#1 -4645396#0"/>
    </vehicle>
    <vehicle id="13" depart="13.00">
        <route edges="-163989146#3 -163989146#2 -163989146#1 -163989146#0 -163989140#2 -163989140#1 -163989140#0 501462498#0 501462498#1 501462498#2 38349616#1 38349616#2 -38349617#1 278513971#0 278513971#1 278513971#2 278513971#4 278513971#5 -278513971#5 -278513971#4 -278513971#2 -278513971#1 -278513971#0"/>
    </vehicle>
    <vehicle id="14" depart="14.00">
        <route edges="4520029#8 4520029#9 4520029#10 -4520029#10 -4520029#9 -4520029#8 -4520029#7 -4520029#5 -4520029#4 -4520029#3 -4520029#2 -4520029#1 -292630184#1 -278513971#5 -278513971#4 -278513971#2 -278513971#1 -278513971#0 38349617#0 -38349617#1 278513971#0 278513971#1 278513971#2 278513971#4"/>
    </vehicle>
    <vehicle id="15" depart="15.00">
        <route edges="4520029#10 -4520029#10 -4520029#9 -4520029#8 -4520029#7 -4520029#5 -4520029#4 -4520029#3 -4520029#2 -4520029#1 -292630184#1 -278513971#5 -278513971#4 -278513971#2 -278513971#1 -278513971#0 38349617#0 38759699#1 38759699#3 38759699#4 38759699#5"/>
    </vehicle>
    <vehicle id="16" depart="16.00">
        <route edges="24998362#11 4645396#0 4645396#1 -4520029#10 -4520029#9 -4520029#8 -4520029#7 -4520029#5 -4520029#4 -4520029#3 -4520029#2 -4520029#1 -292630184#1 -278513971#5 -278513971#4 -278513971#2 -278513971#1 -278513971#0 38349617#0 38759699#1 38759699#3 38759699#4 38759699#5 -501462498#3 -501462498#1 -501462498#0 -58312556#4 -58312556#3 -58312556#2 -58312556#1 -58312556#0 58312556#0 58312556#1 58312556#2 58312556#3"/>
    </vehicle>
    <vehicle id="17" depart="17.00">
        <route edges="-501462498#3 -501462498#1 -501462498#0 501462498#0 501462498#1 501462498#2 38349616#1 38349616#2 -38349617#1 278513971#0 278513971#1 278513971#2 278513971#4 278513971#5 24998362#1 24998362#2"/>
    </vehicle>
    <vehicle id="18" depart="18.00">
        <route edges="4520029#4 -4520029#4 -4520029#3 -4520029#2 -4520029#1 292630184#2"/>
    </vehicle>
    <vehicle id="19" depart="19.00">
        <route edges="4520030#1 4520030#2 4520030#4 4520030#5 4520030#6 4520030#7 24998362#1 24998362#2 24998362#3 24998362#4 24998362#5 24998362#7"/>
    </vehicle>
    <vehicle id="20" depart="20.00">
        <route edges="38759699#3 38759699#4 38759699#5 -501462498#3 -501462498#1 -501462498#0 163989140#0 163989140#1 163989140#2 163989140#4 163989140#5 163989140#6 163989140#7 163989140#8 163989140#9 163989140#10 -163989140#10 -163989140#9 -163989140#8"/>
    </vehicle>
    <vehicle id="21" depart="21.00">
        <route edges="-4060426#4 -4060426#3 -4060426#2 -4060426#1 4060426#1 4060426#2 4060426#3 4060426#4 163989143#0 163989143#1 -38349617#1 278513971#0 278513971#1 278513971#2 278513971#4 278513971#5 292630184#1 4520029#1 4520029#2 4520029#3 4520029#4 4520029#5 4520029#7 4520029#8 4520029#9 4520029#10 -4520029#10 -4520029#9"/>
    </vehicle>
    <vehicle id="22" depart="22.00">
        <route edges="-163989146#1 -163989146#0 -163989140#2 -163989140#1 -163989140#0 501462498#0 501462498#1 501462498#2 38349616#1 38349616#2 -38349617#1 278513971#0 278513971#1 278513971#2 278513971#4 278513971#5 292630184#1 292630184#2 851177627#0 -4520027#2 -4520027#1"/>
    </vehicle>
    <vehicle id="23" depart="23.00">
        <route edges="-278513971#0 38349617#0 -38349617#1 278513971#0 278513971#1 278513971#2 278513971#4 278513971#5 292630184#1 4520029#1 4520029#2 4520029#3 4520029#4 4520029#5 4520029#7 4520029#8 4520029#9 4520029#10 -4520029#10 -4520029#9 -4520029#8 -4520029#7"/>
    </vehicle>
    <vehicle id="24" depart="24.00">
        <route edges="312549779#0 312549779#2 312549779#3 -851177627#0 -292630184#2 -292630184#1 -278513971#5 -278513971#4 -278513971#2 -278513971#1 -278513971#0 38349617#0 38759699#1 38759699#3 38759699#4 38759699#5 -501462498#3 -501462498#1"/>
    </vehicle>
    <vehicle id="25" depart="25.00">
        <route edges="-501462498#1 -501462498#0 501462498#0 501462498#1 501462498#2 38349616#1 38349616#2 -163989143#2 -163989143#0 -4060426#4 -4060426#3 -4060426#2"/>
    </vehicle>
    <vehicle id="26" depart="26.00">
        <route edges="-4520029#3 -4520029#2 -4520029#1 -292630184#1 -278513971#5 -278513971#4 -278513971#2 -278513971#1 -278513971#0 38349617#0 37280968#1 37280968#2 4673735#1 4673735#2 4673735#3"/>
    </vehicle>
    <vehicle id="27" depart="27.00">
        <route edges="312549779#3 -851177627#0 -292630184#2 -292630184#1 -278513971#5 -278513971#4 -278513971#2 -278513971#1 -278513971#0 38349617#0 -38349617#1 278513971#0 278513971#1 278513971#2 278513971#4 278513971#5"/>
    </vehicle>
    <vehicle id="28" depart="28.00">
        <route edges="-392103885#1 392103885#1 392103885#2 312549779#0 312549779#2 312549779#3 -851177627#0 -292630184#2 -292630184#1 -278513971#5 -278513971#4 -278513971#2 -278513971#1 -278513971#0 38349617#0 38759699#1 38759699#3 38759699#4 38759699#5"/>
    </vehicle>
    <vehicle id="29" depart="29.00">
        <route edges="-312549780 392103885#1 392103885#2 312549779#0 312549779#2 312549779#3 -851177627#0 -292630184#2 -292630184#1 -278513971#5 -278513971#4 -278513971#2 -278513971#1 -278513971#0 38349617#0 38759699#1 38759699#3 38759699#4 38759699#5 -501462498#3 -501462498#1 -501462498#0 -58312556#4 -58312556#3 -58312556#2 -58312556#1 -58312556#0"/>
    </vehicle>
    <vehicle id="30" depart="30.00">
        <route edges="851113019#2 -39322226#2 -39322226#1 -39322226#0 -851177627#0 -292630184#2 -292630184#1 -278513971#5 -278513971#4 -278513971#2 -278513971#1 -278513971#0 38349617#0 38759699#1 38759699#3 38759699#4 38759699#5 30816697#3 30816697#4 30816697#5"/>
    </vehicle>
    <vehicle id="31" depart="31.00">
        <route edges="24998362#5 24998362#7 24998362#10 24998362#11 4645396#0 4645396#1 -4520029#10 -4520029#9 -4520029#8 -4520029#7 -4520029#5 -4520029#4 -4520029#3 -4520029#2 -4520029#1 -292630184#1 -278513971#5 -278513971#4 -278513971#2 -278513971#1 -278513971#0 38349617#0 37280968#1 37280968#2 37280968#3"/>
    </vehicle>
    <vehicle id="32" depart="32.00">
        <route edges="4520029#8 4520029#9 4520029#10 -4520029#10 -4520029#9 -4520029#8 -4520029#7 -4520029#5 -4520029#4 -4520029#3 -4520029#2 -4520029#1 -292630184#1 -278513971#5 -278513971#4 -278513971#2 -278513971#1 -278513971#0 38349617#0 -163989143#2 -163989143#0 -4060426#4 -4060426#3 -4060426#2 -4060426#1 4060426#1 4060426#2"/>
    </vehicle>
    <vehicle id="33" depart="33.00">
        <route edges="-4262232#1 -4520029#10 -4520029#9 -4520029#8 -4520029#7 -4520029#5 -4520029#4 -4520029#3 -4520029#2 -4520029#1 -292630184#1 -278513971#5 -278513971#4 -278513971#2 -278513971#1 -278513971#0 38349617#0 38759699#1 38759699#3 38759699#4 38759699#5 -501462498#3 -501462498#1 -501462498#0 163989140#0 163989140#1 163989140#2 163989140#4 163989140#5 163989140#6 163989140#7 163989140#8 163989140#9 163989140#10 -163989140#10 -163989140#9 -163989140#8 -163989140#7 -163989140#6"/>
    </vehicle>
    <vehicle id="34" depart="34.00">
        <route edges="-4520030#2 -4520030#1 -4520030#0 4520030#0 4520030#1 4520030#2 4520030#4 4520030#5 4520030#6 4520030#7 292630184#1 4520029#1 4520029#2 4520029#3 4520029#4 -4520029#4"/>
    </vehicle>
    <vehicle id="35" depart="35.00">
        <route edges="-4060426#2 -4060426#1 4060426#1 4060426#2 4060426#3 4060426#4 163989143#0 163989143#1 38759699#1 38759699#3 38759699#4 38759699#5 -501462498#3 -501462498#1 -501462498#0 501462498#0"/>
    </vehicle>
    <vehicle id="36" depart="36.00">
        <route edges="4520030#4 4520030#5 4520030#6 4520030#7 -4520030#7 -4520030#6 -4520030#5 -4520030#4"/>
    </vehicle>
    <vehicle id="37" depart="37.00">
        <route edges="313576543#1 38759699#1 38759699#3 38759699#4 38759699#5 -501462498#3 -501462498#1 -501462498#0 -58312556#4 -58312556#3"/>
    </vehicle>
    <vehicle id="38" depart="38.00">
        <route edges="4645396#4 392103885#1 392103885#2 312549779#0 312549779#2 312549779#3 -851177627#0 -292630184#2 -292630184#1 -278513971#5 -278513971#4 -278513971#2 -278513971#1 -278513971#0 38349617#0 38759699#1 38759699#3 38759699#4 38759699#5 -501462498#3 -501462498#1 -501462498#0 163989140#0 163989140#1 163989140#2 163989140#4 163989140#5"/>
    </vehicle>
    <vehicle id="39" depart="39.00">
        <route edges="-4520029#3 -4520029#2 -4520029#1"/>
    </vehicle>
    <vehicle id="40" depart="40.00">
        <route edges="24998362#5 24998362#7 24998362#10 24998362#11 4645396#0 4645396#1 -4520029#10 -4520029#9 -4520029#8 -4520029#7 -4520029#5 -4520029#4 -4520029#3"/>
    </vehicle>
    <vehicle id="41" depart="41.00">
        <route edges="278513971#0 278513971#1 278513971#2 278513971#4 278513971#5 -4520030#7 -4520030#6 -4520030#5 -4520030#4 -4520030#2 -4520030#1 -4520030#0 4520030#0 4520030#1 4520030#2 4520030#4 4520030#5 4520030#6 4520030#7"/>
    </vehicle>
    <vehicle id="42" depart="42.00">
        <route edges="-58312556#4 -58312556#3 -58312556#2 -58312556#1 -58312556#0 58312556#0 58312556#1 58312556#2 58312556#3 58312556#4 501462498#0 501462498#1 501462498#2 38349616#1 38349616#2 -163989143#2 -163989143#0 -4060426#4 -4060426#3"/>
    </vehicle>
    <vehicle id="43" depart="43.00">
        <route edges="851177627#0 -851177627#0 -292630184#2 -292630184#1 -278513971#5 -278513971#4 -278513971#2 -278513971#1 -278513971#0 38349617#0 38759699#1 38759699#3 38759699#4 38759699#5 -501462498#3 -501462498#1 -501462498#0 163989140#0 163989140#1 163989140#2 163989146#0 163989146#1 163989146#2"/>
    </vehicle>
    <vehicle id="44" depart="44.00">
        <route edges="-163989146#3 -163989146#2 -163989146#1 -163989146#0 163989140#4 163989140#5 163989140#6 163989140#7 163989140#8 163989140#9 163989140#10 -163989140#10 -163989140#9"/>
    </vehicle>
    <vehicle id="45" depart="45.00">
        <route edges="-278513971#1 -278513971#0 38349617#0 38759699#1 38759699#3 38759699#4 38759699#5 30816697#3"/>
    </vehicle>
    <vehicle id="47" depart="47.00">
        <route edges="-163989143#0 -4060426#4 -4060426#3 -4060426#2 -4060426#1 4060426#1 4060426#2 4060426#3 4060426#4 163989143#0 163989143#1 38759699#1 38759699#3 38759699#4 38759699#5 -501462498#3 -501462498#1 -501462498#0 -58312556#4 -58312556#3 -58312556#2 -58312556#1"/>
    </vehicle>
    <vehicle id="48" depart="48.00">
        <route edges="851177627#0 -851177627#0 -292630184#2 4520029#1 4520029#2 4520029#3 4520029#4 24998184#1"/>
    </vehicle>
    <vehicle id="49" depart="49.00">
        <route edges="58312556#3 58312556#4 501462498#0 501462498#1 501462498#2 38349616#1 38349616#2 -38349617#1 278513971#0 278513971#1 278513971#2 278513971#4 278513971#5 292630184#1 4520029#1 4520029#2 4520029#3 4520029#4 4520029#5 4520029#7 4520029#8 4520029#9"/>
    </vehicle>
    <vehicle id="50" depart="50.00">
        <route edges="-163989140#1 -163989140#0 501462498#0 501462498#1 501462498#2 38349616#1 38349616#2 38759699#1 38759699#3"/>
    </vehicle>
    <vehicle id="51" depart="51.00">
        <route edges="38349616#2 -38349617#1 278513971#0 278513971#1 278513971#2 278513971#4 278513971#5 24998362#1"/>
    </vehicle>
    <vehicle id="52" depart="52.00">
        <route edges="-4520029#3 -4520029#2 -4520029#1 -292630184#1 -278513971#5 -278513971#4 -278513971#2 -278513971#1 -278513971#0 38349617#0 38759699#1 38759699#3 38759699#4 38759699#5 30816697#3 30816697#4 30816697#5"/>
    </vehicle>
    <vehicle id="53" depart="53.00">
        <route edges="-278513971#2 -278513971#1 -278513971#0 38349617#0 38759699#1 38759699#3 38759699#4 38759699#5 -501462498#3 -501462498#1 -501462498#0 163989140#0 163989140#1"/>
    </vehicle>
    <vehicle id="54" depart="54.00">
        <route edges="163989140#4 163989140#5 163989140#6 163989140#7 163989140#8 163989140#9 163989140#10 -163989140#10 -163989140#9 -163989140#8 -163989140#7 -163989140#6 -163989140#5 -163989140#4 -163989140#2 -163989140#1 -163989140#0 501462498#0 501462498#1 501462498#2"/>
    </vehicle>
    <vehicle id="55" depart="55.00">
        <route edges="4520030#4 4520030#5 4520030#6 4520030#7 292630184#1 4520029#1 4520029#2 4520029#3 4520029#4 -4520029#4 -4520029#3"/>
    </vehicle>
    <vehicle id="56" depart="56.00">
        <route edges="163989146#0 163989146#1 163989146#2 163989146#3 -163989146#3 -163989146#2 -163989146#1 -163989146#0 -163989140#2 -163989140#1 -163989140#0 501462498#0 501462498#1 501462498#2 38349616#1 38349616#2 -38349617#1 278513971#0 278513971#1 278513971#2 278513971#4 278513971#5 292630184#1 292630184#2 851177627#0 -312549779#3 -312549779#2 -312549779#0 -392103885#2"/>
    </vehicle>
    <vehicle id="57" depart="57.00">
        <route edges="4645396#4 392103885#1 392103885#2 312549779#0 312549779#2 312549779#3 -851177627#0 -292630184#2 -292630184#1 -4520030#7 -4520030#6 -4520030#5 -4520030#4 -4520030#2 -4520030#1 -4520030#0 4520030#0 4520030#1"/>
    </vehicle>
    <vehicle id="58" depart="58.00">
        <route edges="-4520030#0 4520030#0 4520030#1 4520030#2 4520030#4 4520030#5 4520030#6 4520030#7 -278513971#5 -278513971#4 -278513971#2 -278513971#1 -278513971#0 38349617#0 38759699#1 38759699#3 38759699#4 38759699#5 30816697#3 30816697#4 30816697#5"/>
    </vehicle>
    <vehicle id="59" depart="59.00">
        <route edges="292630184#1 292630184#2 851177627#0 39322226#0 39322226#1 39322226#2 -851113019#2 -312549780"/>
    </vehicle>
    <vehicle id="60" depart="60.00">
        <route edges="4060426#1 4060426#2 4060426#3 4060426#4 163989143#0 163989143#1 -38349617#1 278513971#0 278513971#1 278513971#2 278513971#4 278513971#5 24998362#1 24998362#2 24998362#3 24998362#4 24998362#5 24998362#7 24998362#10"/>
    </vehicle>
    <vehicle id="61" depart="61.00">
        <route edges="4060426#4 163989143#0 163989143#1 -38349617#1 278513971#0 278513971#1 278513971#2 278513971#4 278513971#5 292630184#1 4520029#1 4520029#2 4520029#3 4520029#4 24998184#1"/>
    </vehicle>
    <vehicle id="62" depart="62.00">
        <route edges="-163989140#0 501462498#0 501462498#1 501462498#2 38349616#1 38349616#2 -38349617#1 278513971#0 278513971#1 278513971#2 278513971#4 278513971#5 -4520030#7 -4520030#6"/>
    </vehicle>
    <vehicle id="63" depart="63.00">
        <route edges="-163989140#2 -163989140#1 -163989140#0 501462498#0 501462498#1 501462498#2 38349616#1 38349616#2 37280968#1 37280968#2 4673735#1"/>
    </vehicle>
    <vehicle id="64" depart="64.00">
        <route edges="4520030#5 4520030#6 4520030#7 292630184#1 4520029#1 4520029#2 4520029#3"/>
    </vehicle>
    <vehicle id="65" depart="65.00">
        <route edges="-4520030#1 -4520030#0 4520030#0 4520030#1 4520030#2 4520030#4 4520030#5 4520030#6 4520030#7 -278513971#5 -278513971#4 -278513971#2 -278513971#1 -278513971#0 38349617#0 -163989143#2"/>
    </vehicle>
    <vehicle id="66" depart="66.00">
        <route edges="4520030#5 4520030#6 4520030#7 -278513971#5 -278513971#4 -278513971#2 -278513971#1 -278513971#0 38349617#0 38759699#1 38759699#3 38759699#4 38759699#5 -501462498#3 -501462498#1 -501462498#0 501462498#0"/>
    </vehicle>
    <vehicle id="67" depart="67.00">
        <route edges="-163989146#2 -163989146#1 -163989146#0 -163989140#2 -163989140#1 -163989140#0 501462498#0 501462498#1 501462498#2 38349616#1 38349616#2 -163989143#2 -163989143#0 -4060426#4 -4060426#3 -4060426#2 -4060426#1 4060426#1 4060426#2 4060426#3 4060426#4 163989143#0"/>
    </vehicle>
    <vehicle id="68" depart="68.00">
        <route edges="-163989143#2 -163989143#0 -4060426#4 -4060426#3 -4060426#2 -4060426#1 4060426#1 4060426#2 4060426#3 4060426#4 163989143#0 163989143#1 -38349617#1 278513971#0 278513971#1 278513971#2 278513971#4 278513971#5 292630184#1 292630184#2 851177627#0 39322226#0 39322226#1 39322226#2"/>
    </vehicle>
    <vehicle id="69" depart="69.00">
        <route edges="4060426#1 4060426#2 4060426#3 4060426#4 163989143#0 163989143#1 -38349617#1 278513971#0 278513971#1 278513971#2 278513971#4 278513971#5 292630184#1 292630184#2 851177627#0 -851177627#0 -292630184#2"/>
    </vehicle>
    <vehicle id="70" depart="70.00">
        <route edges="163989140#8 163989140#9 163989140#10 -163989140#10 -163989140#9 -163989140#8 -163989140#7 -163989140#6 -163989140#5 -163989140#4 -163989140#2 -163989140#1 -163989140#0 501462498#0 501462498#1 501462498#2 38349616#1 38349616#2 -38349617#1 278513971#0 278513971#1 278513971#2 278513971#4 278513971#5 24998362#1 24998362#2"/>
    </vehicle>
    <vehicle id="71" depart="71.00">
        <route edges="-4520029#3 -4520029#2 -4520029#1 -292630184#1 -4520030#7 -4520030#6 -4520030#5 -4520030#4 -4520030#2 -4520030#1 -4520030#0 4520030#0 4520030#1"/>
    </vehicle>
    <vehicle id="72" depart="72.00">
        <route edges="151850904#0 151850904#2 38349616#1 38349616#2 -163989143#2 -163989143#0 -4060426#4 -4060426#3 -4060426#2"/>
    </vehicle>
    <vehicle id="73" depart="73.00">
        <route edges="24998362#2 24998362#3 24998362#4 24998362#5 24998362#7 24998362#10 24998362#11 4645396#0 4645396#1 -4520029#10 -4520029#9 -4520029#8 -4520029#7 -4520029#5 -4520029#4 -4520029#3 -4520029#2 -4520029#1 -292630184#1 -278513971#5 -278513971#4 -278513971#2 -278513971#1 -278513971#0 38349617#0 38759699#1 38759699#3 38759699#4 38759699#5"/>
    </vehicle>
    <vehicle id="74" depart="74.00">
        <route edges="-39322226#3 -39322226#2 -39322226#1 -39322226#0 -851177627#0 -292630184#2 -292630184#1 -4520030#7 -4520030#6 -4520030#5 -4520030#4 -4520030#2"/>
    </vehicle>
    <vehicle id="75" depart="75.00">
        <route edges="851177627#0 -312549779#3 -312549779#2 -312549779#0 -392103885#2 -392103885#1 392103885#1 392103885#2 312549779#0 312549779#2"/>
    </vehicle>
    <vehicle id="76" depart="76.00">
        <route edges="163989140#0 163989140#1 163989140#2 163989146#0 163989146#1 163989146#2 163989146#3"/>
    </vehicle>
    <vehicle id="77" depart="77.00">
        <route edges="-278513971#4 -278513971#2 -278513971#1 -278513971#0 38349617#0 -163989143#2 -163989143#0 -4060426#4"/>
    </vehicle>
    <vehicle id="78" depart="78.00">
        <route edges="-4520030#7 -4520030#6 -4520030#5 -4520030#4 -4520030#2 -4520030#1 -4520030#0 4520030#0 4520030#1 4520030#2 4520030#4 4520030#5 4520030#6 4520030#7 -278513971#5 -278513971#4 -278513971#2 -278513971#1 -278513971#0 38349617#0 -38349617#1 278513971#0"/>
    </vehicle>
    <vehicle id="79" depart="79.00">
        <route edges="-4262232#1 -4520029#10 -4520029#9 -4520029#8 -4520029#7 -4520029#5 -4520029#4 -4520029#3 -4520029#2 -4520029#1 -292630184#1 -278513971#5 -278513971#4 -278513971#2 -278513971#1 -278513971#0 38349617#0 -163989143#2 -163989143#0 -4060426#4"/>
    </vehicle>
    <vehicle id="80" depart="80.00">
        <route edges="-163989146#0 -163989140#2 -163989140#1 -163989140#0 501462498#0 501462498#1 501462498#2 30816697#3 30816697#4"/>
    </vehicle>
    <vehicle id="81" depart="81.00">
        <route edges="-4262232#1 -4645396#1 -4645396#0 4645396#0"/>
    </vehicle>
    <vehicle id="82" depart="82.00">
        <route edges="4520030#0 4520030#1 4520030#2 4520030#4 4520030#5 4520030#6 4520030#7 -278513971#5 -278513971#4 -278513971#2 -278513971#1 -278513971#0 38349617#0 38759699#1 38759699#3 38759699#4 38759699#5 -501462498#3 -501462498#1 -501462498#0 163989140#0 163989140#1 163989140#2 163989146#0 163989146#1 163989146#2 163989146#3 -163989146#3 -163989146#2 -163989146#1"/>
    </vehicle>
    <vehicle id="84" depart="84.00">
        <route edges="-4060426#2 -4060426#1 4060426#1 4060426#2 4060426#3 4060426#4 163989143#0 163989143#1 -38349617#1 278513971#0 278513971#1 278513971#2 278513971#4 278513971#5 292630184#1 292630184#2 851177627#0 -851177627#0 -292630184#2"/>
    </vehicle>
    <vehicle id="85" depart="85.00">
        <route edges="4673739 4060426#1 4060426#2 4060426#3 4060426#4 163989143#0 163989143#1 -38349617#1 278513971#0 278513971#1 278513971#2 278513971#4 278513971#5 24998362#1 24998362#2 24998362#3 24998362#4 24998362#5"/>
    </vehicle>
    <vehicle id="86" depart="86.00">
        <route edges="163989140#7 163989140#8 163989140#9 163989140#10 -163989140#10 -163989140#9 -163989140#8 -163989140#7 -163989140#6 -163989140#5 -163989140#4 -163989140#2 -163989140#1 -163989140#0 501462498#0 501462498#1 501462498#2 38349616#1 38349616#2 -163989143#2 -163989143#0 -4060426#4 -4060426#3 -4060426#2 -4060426#1 4060426#1 4060426#2 4060426#3"/>
    </vehicle>
    <vehicle id="87" depart="87.00">
        <route edges="4520029#10 4645396#3 4645396#4 312549780 851113019#2 -39322226#2 -39322226#1"/>
    </vehicle>
    <vehicle id="89" depart="89.00">
        <route edges="151850904#0 151850904#2 -501462498#3 -501462498#1 -501462498#0 163989140#0 163989140#1 163989140#2 163989140#4 163989140#5 163989140#6"/>
    </vehicle>
    <vehicle id="90" depart="90.00">
        <route edges="392103885#1 392103885#2 312549779#0 312549779#2 312549779#3 -851177627#0 -292630184#2 -292630184#1 -278513971#5 -278513971#4 -278513971#2 -278513971#1 -278513971#0 38349617#0 37280968#1"/>
    </vehicle>
    <vehicle id="91" depart="91.00">
        <route edges="851113019#0 851113019#2 -39322226#2 -39322226#1 -39322226#0 -851177627#0 -292630184#2 -292630184#1 -278513971#5 -278513971#4 -278513971#2 -278513971#1"/>
    </vehicle>
    <vehicle id="92" depart="92.00">
        <route edges="-58312556#4 -58312556#3 -58312556#2 -58312556#1 -58312556#0 58312556#0 58312556#1 58312556#2 58312556#3 58312556#4 501462498#0 501462498#1 501462498#2 38349616#1 38349616#2 -38349617#1 278513971#0 278513971#1 278513971#2 278513971#4 278513971#5 292630184#1 4520029#1 4520029#2 4520029#3 4520029#4 4520029#5 4520029#7 4520029#8 4520029#9 4520029#10 -4645396#1 -4645396#0"/>
    </vehicle>
    <vehicle id="93" depart="93.00">
        <route edges="4520030#1 4520030#2 4520030#4 4520030#5 4520030#6 4520030#7 292630184#1 4520029#1 4520029#2 4520029#3 4520029#4 4520029#5 4520029#7 4520029#8 4520029#9 4520029#10 -4520029#10"/>
    </vehicle>
    <vehicle id="94" depart="94.00">
        <route edges="-39322226#1 -39322226#0 -851177627#0 -292630184#2 -292630184#1 -278513971#5 -278513971#4 -278513971#2 -278513971#1 -278513971#0 38349617#0 38759699#1 38759699#3 38759699#4 38759699#5 -501462498#3 -501462498#1 -501462498#0 163989140#0 163989140#1 163989140#2"/>
    </vehicle>
    <vehicle id="95" depart="95.00">
        <route edges="151850904#0 151850904#2 38349616#1 38349616#2 -38349617#1 278513971#0 278513971#1 278513971#2 278513971#4 278513971#5 292630184#1 4520029#1 4520029#2 4520029#3 4520029#4 4520029#5 4520029#7 4520029#8 4520029#9 4520029#10 -4520029#10 -4520029#9 -4520029#8 -4520029#7"/>
    </vehicle>
    <vehicle id="96" depart="96.00">
        <route edges="-4520029#1 4520029#1 4520029#2 4520029#3 4520029#4 4520029#5 4520029#7 4520029#8 4520029#9 4520029#10 4645396#3 4645396#4"/>
    </vehicle>
    <vehicle id="97" depart="97.00">
        <route edges="163989140#1 163989140#2 -163989140#2 -163989140#1 -163989140#0 501462498#0 501462498#1 501462498#2 38349616#1 38349616#2 -38349617#1 278513971#0 278513971#1 278513971#2 278513971#4 278513971#5 -4520030#7 -4520030#6 -4520030#5 -4520030#4 -4520030#2 -4520030#1 -4520030#0 4520030#0"/>
    </vehicle>
    <vehicle id="98" depart="98.00">
        <route edges="24998362#4 24998362#5 24998362#7 24998362#10 24998362#11 4645396#0 4645396#1 -4520029#10 -4520029#9 -4520029#8 -4520029#7 -4520029#5 -4520029#4 -4520029#3 -4520029#2 -4520029#1 -292630184#1 -278513971#5 -278513971#4 -278513971#2 -278513971#1 -278513971#0 38349617#0 38759699#1 38759699#3 38759699#4 38759699#5 -501462498#3 -501462498#1 -501462498#0 163989140#0 163989140#1 163989140#2 163989140#4 163989140#5 163989140#6 163989140#7 163989140#8 163989140#9 163989140#10 -163989140#10 -163989140#9"/>
    </vehicle>
    <vehicle id="99" depart="99.00">
        <route edges="851177627#0 -851177627#0 -292630184#2 4520029#1 4520029#2 4520029#3 4520029#4"/>
    </vehicle>
</routes>
