<?xml version="1.0" encoding="UTF-8"?>

<!-- generated on 2021-12-14 19:19:15 by Eclipse SUMO netconvert Version 1.11.0
<configuration xmlns:xsi="http://www.w3.org/2001/XMLSchema-instance" xsi:noNamespaceSchemaLocation="http://sumo.dlr.de/xsd/netconvertConfiguration.xsd">

    <input>
        <type-files value="/usr/share/sumo/data/typemap/osmNetconvert.typ.xml,/usr/share/sumo/data/typemap/osmNetconvertUrbanDe.typ.xml"/>
        <osm-files value="hm_map.osm"/>
    </input>

    <output>
        <output-file value="hm_map_ped.net.xml"/>
    </output>

    <projection>
        <proj.utm value="true"/>
    </projection>

    <processing>
        <geometry.remove value="true"/>
        <roundabouts.guess value="true"/>
    </processing>

    <tls_building>
        <tls.discard-simple value="true"/>
        <tls.join value="true"/>
        <tls.guess-signals value="true"/>
    </tls_building>

    <ramp_guessing>
        <ramps.guess value="true"/>
    </ramp_guessing>

    <junctions>
        <junctions.join value="true"/>
    </junctions>

    <formats>
        <osm.sidewalks value="true"/>
    </formats>

    <report>
        <aggregate-warnings value="5"/>
    </report>

</configuration>
-->

<net version="1.9" junctionCornerDetail="5" limitTurnSpeed="5.50" xmlns:xsi="http://www.w3.org/2001/XMLSchema-instance" xsi:noNamespaceSchemaLocation="http://sumo.dlr.de/xsd/net_file.xsd">

    <location netOffset="-689401.52,-5336004.59" convBoundary="0.00,0.00,1136.62,1376.39" origBoundary="11.537957,48.148799,11.562171,48.167292" projParameter="+proj=utm +zone=32 +ellps=WGS84 +datum=WGS84 +units=m +no_defs"/>

    <type id="highway.bridleway" priority="1" numLanes="1" speed="2.78" allow="pedestrian" oneway="1" width="2.00"/>
    <type id="highway.bus_guideway" priority="1" numLanes="1" speed="13.89" allow="bus" oneway="1"/>
    <type id="highway.cycleway" priority="1" numLanes="1" speed="8.33" allow="bicycle" oneway="0" width="1.00"/>
    <type id="highway.footway" priority="1" numLanes="1" speed="2.78" allow="pedestrian" oneway="1" width="2.00"/>
    <type id="highway.ford" priority="1" numLanes="1" speed="2.78" allow="army" oneway="0"/>
    <type id="highway.living_street" priority="2" numLanes="1" speed="2.78" disallow="tram rail_urban rail rail_electric rail_fast ship" oneway="0"/>
    <type id="highway.motorway" priority="14" numLanes="2" speed="27.78" allow="private emergency authority army vip passenger hov taxi bus coach delivery truck trailer motorcycle evehicle custom1 custom2" oneway="1"/>
    <type id="highway.motorway_link" priority="9" numLanes="1" speed="16.67" allow="private emergency authority army vip passenger hov taxi bus coach delivery truck trailer motorcycle evehicle custom1 custom2" oneway="1"/>
    <type id="highway.path" priority="1" numLanes="1" speed="2.78" allow="pedestrian bicycle" oneway="0" width="2.00"/>
    <type id="highway.pedestrian" priority="1" numLanes="1" speed="2.78" allow="pedestrian" oneway="1" width="2.00"/>
    <type id="highway.primary" priority="12" numLanes="2" speed="13.89" disallow="tram rail_urban rail rail_electric rail_fast ship" oneway="0"/>
    <type id="highway.primary_link" priority="7" numLanes="1" speed="13.89" disallow="tram rail_urban rail rail_electric rail_fast ship" oneway="0"/>
    <type id="highway.raceway" priority="15" numLanes="2" speed="83.33" allow="vip" oneway="0"/>
    <type id="highway.residential" priority="3" numLanes="1" speed="13.89" disallow="tram rail_urban rail rail_electric rail_fast ship" oneway="0"/>
    <type id="highway.secondary" priority="11" numLanes="1" speed="13.89" disallow="tram rail_urban rail rail_electric rail_fast ship" oneway="0"/>
    <type id="highway.secondary_link" priority="6" numLanes="1" speed="13.89" disallow="tram rail_urban rail rail_electric rail_fast ship" oneway="0"/>
    <type id="highway.service" priority="1" numLanes="1" speed="5.56" allow="pedestrian delivery bicycle" oneway="0"/>
    <type id="highway.stairs" priority="1" numLanes="1" speed="1.39" allow="pedestrian" oneway="1" width="2.00"/>
    <type id="highway.step" priority="1" numLanes="1" speed="1.39" allow="pedestrian" oneway="1" width="2.00"/>
    <type id="highway.steps" priority="1" numLanes="1" speed="1.39" allow="pedestrian" oneway="1" width="2.00"/>
    <type id="highway.tertiary" priority="10" numLanes="1" speed="13.89" disallow="tram rail_urban rail rail_electric rail_fast ship" oneway="0"/>
    <type id="highway.tertiary_link" priority="5" numLanes="1" speed="13.89" disallow="tram rail_urban rail rail_electric rail_fast ship" oneway="0"/>
    <type id="highway.track" priority="1" numLanes="1" speed="5.56" allow="pedestrian motorcycle moped bicycle" oneway="0"/>
    <type id="highway.trunk" priority="13" numLanes="2" speed="13.89" disallow="pedestrian bicycle tram rail_urban rail rail_electric rail_fast ship" oneway="0"/>
    <type id="highway.trunk_link" priority="8" numLanes="1" speed="13.89" disallow="pedestrian bicycle tram rail_urban rail rail_electric rail_fast ship" oneway="0"/>
    <type id="highway.unclassified" priority="4" numLanes="1" speed="13.89" disallow="tram rail_urban rail rail_electric rail_fast ship" oneway="0"/>
    <type id="highway.unsurfaced" priority="1" numLanes="1" speed="8.33" disallow="tram rail_urban rail rail_electric rail_fast ship" oneway="0"/>
    <type id="railway.highspeed" priority="21" numLanes="1" speed="69.44" allow="rail_fast" oneway="1"/>
    <type id="railway.light_rail" priority="19" numLanes="1" speed="27.78" allow="rail_urban" oneway="1"/>
    <type id="railway.preserved" priority="16" numLanes="1" speed="27.78" allow="rail" oneway="1"/>
    <type id="railway.rail" priority="20" numLanes="1" speed="44.44" allow="rail" oneway="1"/>
    <type id="railway.subway" priority="18" numLanes="1" speed="27.78" allow="rail_urban" oneway="1"/>
    <type id="railway.tram" priority="17" numLanes="1" speed="13.89" allow="tram" oneway="1"/>

    <edge id=":1011769979_0" function="internal">
        <lane id=":1011769979_0_0" index="0" allow="pedestrian bicycle" speed="2.04" length="1.46" width="1.00" shape="912.08,22.19 912.38,21.86 912.65,21.78 912.87,21.94 913.06,22.35"/>
    </edge>
    <edge id=":1021176478_0" function="internal">
        <lane id=":1021176478_0_0" index="0" allow="pedestrian bicycle" speed="2.04" length="1.46" width="1.00" shape="31.73,1132.63 31.29,1132.74 31.02,1132.67 30.92,1132.41 30.99,1131.96"/>
    </edge>
    <edge id=":1129822994_0" function="internal">
        <lane id=":1129822994_0_0" index="0" allow="pedestrian delivery bicycle" speed="5.56" length="6.30" shape="826.67,598.45 825.95,596.74 825.30,595.63 824.43,594.67 823.06,593.42"/>
    </edge>
    <edge id=":1129822994_1" function="internal">
        <lane id=":1129822994_1_0" index="0" allow="pedestrian delivery bicycle" speed="3.65" length="2.34" shape="826.67,598.45 826.97,597.04 827.57,596.37"/>
    </edge>
    <edge id=":1129822994_4" function="internal">
        <lane id=":1129822994_4_0" index="0" allow="pedestrian delivery bicycle" speed="3.65" length="2.34" shape="827.57,596.37 828.46,596.45 829.64,597.27"/>
    </edge>
    <edge id=":1129822994_2" function="internal">
        <lane id=":1129822994_2_0" index="0" allow="pedestrian delivery bicycle" speed="5.56" length="7.78" shape="825.19,591.04 826.89,592.59 827.96,593.78 828.75,595.15 829.64,597.27"/>
    </edge>
    <edge id=":1129822994_3" function="internal">
        <lane id=":1129822994_3_0" index="0" allow="pedestrian delivery bicycle" speed="3.65" length="2.34" shape="825.19,591.04 825.55,592.43 825.31,593.30"/>
    </edge>
    <edge id=":1129822994_5" function="internal">
        <lane id=":1129822994_5_0" index="0" allow="pedestrian delivery bicycle" speed="3.65" length="2.34" shape="825.31,593.30 824.48,593.62 823.06,593.42"/>
    </edge>
    <edge id=":1282722744_0" function="internal">
        <lane id=":1282722744_0_0" index="0" allow="pedestrian delivery bicycle" speed="5.56" length="10.16" shape="516.89,524.00 515.25,521.76 514.72,519.52 515.30,517.30 517.00,515.09"/>
    </edge>
    <edge id=":1282722744_1" function="internal">
        <lane id=":1282722744_1_0" index="0" allow="pedestrian delivery bicycle" speed="3.65" length="4.67" shape="516.89,524.00 516.63,522.59 516.92,521.74 517.77,521.47 519.18,521.77"/>
    </edge>
    <edge id=":1282722744_2" function="internal">
        <lane id=":1282722744_2_0" index="0" allow="pedestrian delivery bicycle" speed="5.04" length="5.00" shape="519.24,517.39 518.40,518.47 518.11,519.56 518.37,520.66 519.18,521.77"/>
    </edge>
    <edge id=":1282722744_3" function="internal">
        <lane id=":1282722744_3_0" index="0" allow="pedestrian delivery bicycle" speed="3.65" length="4.67" shape="519.24,517.39 517.82,517.65 516.97,517.36 516.70,516.50 517.00,515.09"/>
    </edge>
    <edge id=":1282722746_0" function="internal">
        <lane id=":1282722746_0_0" index="0" disallow="pedestrian tram rail_urban rail rail_electric rail_fast ship" speed="8.33" length="9.79" shape="388.00,670.86 380.49,664.57"/>
    </edge>
    <edge id=":1282722746_1" function="internal">
        <lane id=":1282722746_1_0" index="0" allow="delivery bicycle" speed="6.95" length="4.99" shape="388.00,670.86 385.89,668.45 385.53,666.71"/>
    </edge>
    <edge id=":1282722746_7" function="internal">
        <lane id=":1282722746_7_0" index="0" allow="delivery bicycle" speed="6.95" length="7.80" shape="385.53,666.71 385.35,665.85 386.37,663.05 388.95,660.07"/>
    </edge>
    <edge id=":1282722746_2" function="internal">
        <lane id=":1282722746_2_0" index="0" allow="delivery bicycle" speed="5.56" length="7.06" shape="391.11,662.43 389.55,664.17 388.85,665.73 389.00,667.14 390.00,668.37"/>
    </edge>
    <edge id=":1282722746_3" function="internal">
        <lane id=":1282722746_3_0" index="0" allow="delivery bicycle" speed="6.95" length="11.96" shape="391.11,662.43 388.04,664.77 385.25,665.90 382.73,665.84 380.49,664.57"/>
    </edge>
    <edge id=":1282722746_4" function="internal">
        <lane id=":1282722746_4_0" index="0" allow="pedestrian delivery bicycle" speed="3.65" length="4.67" shape="391.11,662.43 389.69,662.65 388.85,662.33 388.61,661.47 388.95,660.07"/>
    </edge>
    <edge id=":1282722746_5" function="internal">
        <lane id=":1282722746_5_0" index="0" allow="delivery bicycle" speed="6.12" length="7.24" shape="382.62,662.18 383.78,662.73 385.22,662.56 386.95,661.67 388.95,660.07"/>
    </edge>
    <edge id=":1282722746_6" function="internal">
        <lane id=":1282722746_6_0" index="0" disallow="pedestrian tram rail_urban rail rail_electric rail_fast ship" speed="8.33" length="9.63" shape="382.62,662.18 390.00,668.37"/>
    </edge>
    <edge id=":1282722753_0" function="internal">
        <lane id=":1282722753_0_0" index="0" allow="pedestrian delivery bicycle" speed="5.54" length="4.61" shape="540.15,500.45 539.00,500.06 537.91,500.04 536.88,500.40 535.91,501.13"/>
    </edge>
    <edge id=":1282722753_1" function="internal">
        <lane id=":1282722753_1_0" index="0" allow="pedestrian delivery bicycle" speed="3.65" length="4.67" shape="540.15,500.45 539.42,499.20 539.41,498.31 540.12,497.76 541.55,497.57"/>
    </edge>
    <edge id=":1282722753_2" function="internal">
        <lane id=":1282722753_2_0" index="0" allow="pedestrian delivery bicycle" speed="5.56" length="8.55" shape="533.68,498.84 535.48,497.48 537.39,496.82 539.42,496.85 541.55,497.57"/>
    </edge>
    <edge id=":1282722753_3" function="internal">
        <lane id=":1282722753_3_0" index="0" allow="pedestrian delivery bicycle" speed="3.65" length="4.67" shape="533.68,498.84 535.10,498.57 535.94,498.87 536.21,499.72 535.91,501.13"/>
    </edge>
    <edge id=":1296202192_0" function="internal">
        <lane id=":1296202192_0_0" index="0" disallow="tram rail_urban rail rail_electric rail_fast ship" speed="8.33" length="5.21" shape="289.07,705.84 287.53,705.68 286.47,705.60 285.41,705.58 283.87,705.61"/>
    </edge>
    <edge id=":1296202192_1" function="internal">
        <lane id=":1296202192_1_0" index="0" disallow="tram rail_urban rail rail_electric rail_fast ship" speed="8.33" length="5.62" shape="283.79,702.41 285.46,702.38 286.60,702.40 287.74,702.49 289.40,702.66"/>
    </edge>
    <edge id=":1519557038_0" function="internal">
        <lane id=":1519557038_0_0" index="0" allow="pedestrian bicycle" speed="2.04" length="1.46" width="1.00" shape="53.38,1155.27 53.04,1155.57 52.77,1155.62 52.56,1155.44 52.41,1155.01"/>
    </edge>
    <edge id=":1542203986_0" function="internal">
        <lane id=":1542203986_0_0" index="0" allow="pedestrian delivery bicycle" speed="4.17" length="6.12" shape="492.56,969.55 491.02,968.51 489.60,968.12 488.31,968.38 487.14,969.28"/>
    </edge>
    <edge id=":1542203986_1" function="internal">
        <lane id=":1542203986_1_0" index="0" allow="pedestrian bicycle" speed="4.17" length="11.55" shape="492.56,969.55 489.27,966.93 486.54,965.09 484.37,964.04 482.75,963.78"/>
    </edge>
    <edge id=":1542203986_2" function="internal">
        <lane id=":1542203986_2_0" index="0" allow="pedestrian delivery bicycle" speed="2.78" length="12.80" shape="492.56,969.55 490.23,966.95 489.22,964.19 489.53,961.29 491.16,958.24"/>
    </edge>
    <edge id=":1542203986_3" function="internal">
        <lane id=":1542203986_3_0" index="0" allow="pedestrian delivery bicycle" speed="2.78" length="5.77" shape="492.56,969.55 493.16,967.87 494.00,967.16 495.08,967.40 496.40,968.60"/>
    </edge>
    <edge id=":1542203986_4" function="internal">
        <lane id=":1542203986_4_0" index="0" allow="pedestrian delivery bicycle" speed="2.78" length="9.87" shape="493.74,960.13 492.85,962.10 492.99,964.17 494.18,966.34 496.40,968.60"/>
    </edge>
    <edge id=":1542203986_5" function="internal">
        <lane id=":1542203986_5_0" index="0" allow="pedestrian delivery bicycle" speed="4.17" length="11.29" shape="493.74,960.13 491.93,962.74 490.59,964.83 489.17,966.85 487.14,969.28"/>
    </edge>
    <edge id=":1542203986_6" function="internal">
        <lane id=":1542203986_6_0" index="0" allow="pedestrian bicycle" speed="4.17" length="11.82" shape="493.74,960.13 492.28,961.41 489.97,962.44 486.79,963.23 482.75,963.78"/>
    </edge>
    <edge id=":1542203986_7" function="internal">
        <lane id=":1542203986_7_0" index="0" allow="pedestrian delivery bicycle" speed="2.78" length="4.67" shape="493.74,960.13 492.38,960.63 491.50,960.48 491.09,959.68 491.16,958.24"/>
    </edge>
    <edge id=":1542203986_8" function="internal">
        <lane id=":1542203986_8_0" index="0" allow="pedestrian bicycle" speed="4.17" length="9.03" shape="482.58,960.58 485.88,960.17 488.41,959.64 490.17,959.00 491.16,958.24"/>
    </edge>
    <edge id=":1542203986_9" function="internal">
        <lane id=":1542203986_9_0" index="0" allow="pedestrian bicycle" speed="4.17" length="16.22" shape="482.58,960.58 484.90,960.94 487.98,962.40 491.81,964.95 496.40,968.60"/>
    </edge>
    <edge id=":1542203986_10" function="internal">
        <lane id=":1542203986_10_0" index="0" allow="pedestrian bicycle" speed="5.56" length="16.52" shape="482.58,960.58 487.97,960.64 490.52,962.11 490.25,964.99 487.14,969.28"/>
    </edge>
    <edge id=":1542203986_11" function="internal">
        <lane id=":1542203986_11_0" index="0" allow="pedestrian motorcycle moped bicycle" speed="3.65" length="2.45" shape="482.58,960.58 483.82,961.32 484.26,962.10 484.22,962.20"/>
    </edge>
    <edge id=":1542203986_16" function="internal">
        <lane id=":1542203986_16_0" index="0" allow="pedestrian motorcycle moped bicycle" speed="3.65" length="2.22" shape="484.22,962.20 483.91,962.92 482.75,963.78"/>
    </edge>
    <edge id=":1542203986_12" function="internal">
        <lane id=":1542203986_12_0" index="0" allow="pedestrian bicycle" speed="4.70" length="6.87" shape="484.44,967.50 485.77,965.67 485.93,964.44 484.93,963.81 482.75,963.78"/>
    </edge>
    <edge id=":1542203986_13" function="internal">
        <lane id=":1542203986_13_0" index="0" allow="pedestrian delivery bicycle" speed="4.17" length="11.45" shape="484.44,967.50 486.49,965.05 487.95,962.99 489.33,960.87 491.16,958.24"/>
    </edge>
    <edge id=":1542203986_14" function="internal">
        <lane id=":1542203986_14_0" index="0" allow="pedestrian delivery bicycle" speed="4.17" length="4.08" shape="484.44,967.50 486.91,965.65 487.90,965.50"/>
    </edge>
    <edge id=":1542203986_15" function="internal">
        <lane id=":1542203986_15_0" index="0" allow="pedestrian delivery bicycle" speed="3.66" length="2.36" shape="484.44,967.50 485.78,966.93 486.68,967.03"/>
    </edge>
    <edge id=":1542203986_17" function="internal">
        <lane id=":1542203986_17_0" index="0" allow="pedestrian delivery bicycle" speed="4.17" length="9.41" shape="487.90,965.50 489.73,965.22 492.89,966.20 496.40,968.60"/>
    </edge>
    <edge id=":1542203986_18" function="internal">
        <lane id=":1542203986_18_0" index="0" allow="pedestrian delivery bicycle" speed="3.66" length="2.36" shape="486.68,967.03 487.13,967.82 487.14,969.28"/>
    </edge>
    <edge id=":1542203989_0" function="internal">
        <lane id=":1542203989_0_0" index="0" allow="pedestrian delivery bicycle" speed="5.56" length="5.08" shape="947.61,970.87 944.23,974.66"/>
    </edge>
    <edge id=":1542203989_1" function="internal">
        <lane id=":1542203989_1_0" index="0" allow="pedestrian delivery bicycle" speed="3.65" length="2.34" shape="947.61,970.87 946.21,971.19 945.35,970.94"/>
    </edge>
    <edge id=":1542203989_4" function="internal">
        <lane id=":1542203989_4_0" index="0" allow="pedestrian delivery bicycle" speed="3.65" length="2.34" shape="945.35,970.94 945.04,970.10 945.29,968.67"/>
    </edge>
    <edge id=":1542203989_2" function="internal">
        <lane id=":1542203989_2_0" index="0" allow="pedestrian delivery bicycle" speed="5.56" length="5.25" shape="941.78,972.59 945.29,968.67"/>
    </edge>
    <edge id=":1542203989_3" function="internal">
        <lane id=":1542203989_3_0" index="0" allow="pedestrian delivery bicycle" speed="3.65" length="2.34" shape="941.78,972.59 943.17,972.19 944.04,972.41"/>
    </edge>
    <edge id=":1542203989_5" function="internal">
        <lane id=":1542203989_5_0" index="0" allow="pedestrian delivery bicycle" speed="3.65" length="2.34" shape="944.04,972.41 944.39,973.23 944.23,974.66"/>
    </edge>
    <edge id=":1542204013_0" function="internal">
        <lane id=":1542204013_0_0" index="0" allow="pedestrian delivery bicycle" speed="3.65" length="4.67" shape="431.69,1028.16 430.25,1028.24 429.45,1027.84 429.29,1026.95 429.77,1025.60"/>
    </edge>
    <edge id=":1542204044_0" function="internal">
        <lane id=":1542204044_0_0" index="0" allow="pedestrian delivery bicycle" speed="3.65" length="4.67" shape="919.87,1003.39 918.48,1003.79 917.61,1003.58 917.26,1002.76 917.42,1001.33"/>
    </edge>
    <edge id=":1542204096_0" function="internal">
        <lane id=":1542204096_0_0" index="0" allow="pedestrian delivery bicycle" speed="5.16" length="5.25" shape="536.23,949.33 535.06,948.62 533.91,948.49 532.77,948.93 531.65,949.93"/>
    </edge>
    <edge id=":1542204096_1" function="internal">
        <lane id=":1542204096_1_0" index="0" allow="pedestrian delivery bicycle" speed="5.56" length="9.52" shape="536.23,949.33 528.70,943.49"/>
    </edge>
    <edge id=":1542204096_2" function="internal">
        <lane id=":1542204096_2_0" index="0" allow="pedestrian delivery bicycle" speed="5.56" length="10.05" shape="536.23,949.33 534.39,947.28 533.61,945.13 533.90,942.87 535.26,940.50"/>
    </edge>
    <edge id=":1542204096_3" function="internal">
        <lane id=":1542204096_3_0" index="0" allow="pedestrian delivery bicycle" speed="3.65" length="4.67" shape="536.23,949.33 535.83,947.94 536.03,947.07 536.85,946.72 538.29,946.87"/>
    </edge>
    <edge id=":1542204096_4" function="internal">
        <lane id=":1542204096_4_0" index="0" allow="pedestrian delivery bicycle" speed="5.10" length="5.01" shape="537.78,942.47 537.11,943.65 536.97,944.77 537.36,945.85 538.29,946.87"/>
    </edge>
    <edge id=":1542204096_5" function="internal">
        <lane id=":1542204096_5_0" index="0" allow="pedestrian delivery bicycle" speed="5.56" length="9.65" shape="537.78,942.47 531.65,949.93"/>
    </edge>
    <edge id=":1542204096_6" function="internal">
        <lane id=":1542204096_6_0" index="0" allow="pedestrian delivery bicycle" speed="5.56" length="10.32" shape="537.78,942.47 535.80,944.35 533.62,945.14 531.26,944.86 528.70,943.49"/>
    </edge>
    <edge id=":1542204096_7" function="internal">
        <lane id=":1542204096_7_0" index="0" allow="pedestrian delivery bicycle" speed="3.65" length="4.67" shape="537.78,942.47 536.41,942.93 535.53,942.75 535.15,941.94 535.26,940.50"/>
    </edge>
    <edge id=":1542204096_8" function="internal">
        <lane id=":1542204096_8_0" index="0" allow="pedestrian delivery bicycle" speed="5.24" length="5.31" shape="530.57,940.90 531.92,941.63 533.15,941.80 534.26,941.43 535.26,940.50"/>
    </edge>
    <edge id=":1542204096_9" function="internal">
        <lane id=":1542204096_9_0" index="0" allow="pedestrian delivery bicycle" speed="5.56" length="9.76" shape="530.57,940.90 538.29,946.87"/>
    </edge>
    <edge id=":1542204096_10" function="internal">
        <lane id=":1542204096_10_0" index="0" allow="pedestrian delivery bicycle" speed="5.56" length="10.59" shape="530.57,940.90 532.69,942.93 533.58,945.12 533.23,947.45 531.65,949.93"/>
    </edge>
    <edge id=":1542204096_11" function="internal">
        <lane id=":1542204096_11_0" index="0" allow="pedestrian delivery bicycle" speed="3.65" length="4.67" shape="530.57,940.90 531.08,942.25 530.94,943.13 530.15,943.54 528.70,943.49"/>
    </edge>
    <edge id=":1542204096_12" function="internal">
        <lane id=":1542204096_12_0" index="0" allow="pedestrian delivery bicycle" speed="4.95" length="5.11" shape="529.22,947.85 529.98,946.65 530.15,945.53 529.72,944.48 528.70,943.49"/>
    </edge>
    <edge id=":1542204096_13" function="internal">
        <lane id=":1542204096_13_0" index="0" allow="pedestrian delivery bicycle" speed="5.56" length="9.51" shape="529.22,947.85 535.26,940.50"/>
    </edge>
    <edge id=":1542204096_14" function="internal">
        <lane id=":1542204096_14_0" index="0" allow="pedestrian delivery bicycle" speed="5.56" length="10.37" shape="529.22,947.85 531.40,945.92 533.63,945.11 535.93,945.43 538.29,946.87"/>
    </edge>
    <edge id=":1542204096_15" function="internal">
        <lane id=":1542204096_15_0" index="0" allow="pedestrian delivery bicycle" speed="3.65" length="4.67" shape="529.22,947.85 530.61,947.46 531.48,947.68 531.83,948.50 531.65,949.93"/>
    </edge>
    <edge id=":1542204137_0" function="internal">
        <lane id=":1542204137_0_0" index="0" allow="pedestrian delivery bicycle" speed="5.02" length="5.03" shape="933.19,992.53 932.03,991.77 930.92,991.57 929.85,991.92 928.81,992.84"/>
    </edge>
    <edge id=":1542204137_1" function="internal">
        <lane id=":1542204137_1_0" index="0" allow="pedestrian delivery bicycle" speed="5.56" length="9.50" shape="933.19,992.53 926.05,986.26"/>
    </edge>
    <edge id=":1542204137_2" function="internal">
        <lane id=":1542204137_2_0" index="0" allow="pedestrian delivery bicycle" speed="5.56" length="10.26" shape="933.19,992.53 931.37,990.39 930.65,988.17 931.04,985.88 932.52,983.51"/>
    </edge>
    <edge id=":1542204137_3" function="internal">
        <lane id=":1542204137_3_0" index="0" allow="pedestrian delivery bicycle" speed="3.65" length="4.67" shape="933.19,992.53 932.82,991.14 933.05,990.27 933.88,989.94 935.31,990.14"/>
    </edge>
    <edge id=":1542204137_4" function="internal">
        <lane id=":1542204137_4_0" index="0" allow="pedestrian delivery bicycle" speed="5.15" length="5.18" shape="934.96,985.58 934.22,986.78 934.02,987.93 934.39,989.05 935.31,990.14"/>
    </edge>
    <edge id=":1542204137_5" function="internal">
        <lane id=":1542204137_5_0" index="0" allow="pedestrian delivery bicycle" speed="5.56" length="9.51" shape="934.96,985.58 928.81,992.84"/>
    </edge>
    <edge id=":1542204137_6" function="internal">
        <lane id=":1542204137_6_0" index="0" allow="pedestrian delivery bicycle" speed="5.56" length="10.22" shape="934.96,985.58 932.86,987.44 930.68,988.18 928.41,987.78 926.05,986.26"/>
    </edge>
    <edge id=":1542204137_7" function="internal">
        <lane id=":1542204137_7_0" index="0" allow="pedestrian delivery bicycle" speed="3.65" length="4.67" shape="934.96,985.58 933.58,985.98 932.71,985.77 932.36,984.95 932.52,983.51"/>
    </edge>
    <edge id=":1542204137_8" function="internal">
        <lane id=":1542204137_8_0" index="0" allow="pedestrian delivery bicycle" speed="5.03" length="5.01" shape="928.15,983.85 929.31,984.59 930.42,984.79 931.49,984.43 932.52,983.51"/>
    </edge>
    <edge id=":1542204137_9" function="internal">
        <lane id=":1542204137_9_0" index="0" allow="pedestrian delivery bicycle" speed="5.56" length="9.53" shape="928.15,983.85 935.31,990.14"/>
    </edge>
    <edge id=":1542204137_10" function="internal">
        <lane id=":1542204137_10_0" index="0" allow="pedestrian delivery bicycle" speed="5.56" length="10.26" shape="928.15,983.85 929.98,985.96 930.70,988.17 930.31,990.46 928.81,992.84"/>
    </edge>
    <edge id=":1542204137_11" function="internal">
        <lane id=":1542204137_11_0" index="0" allow="pedestrian delivery bicycle" speed="3.65" length="4.67" shape="928.15,983.85 928.53,985.24 928.31,986.10 927.48,986.44 926.05,986.26"/>
    </edge>
    <edge id=":1542204137_12" function="internal">
        <lane id=":1542204137_12_0" index="0" allow="pedestrian delivery bicycle" speed="5.12" length="5.14" shape="926.37,990.77 927.13,989.58 927.32,988.42 926.97,987.32 926.05,986.26"/>
    </edge>
    <edge id=":1542204137_13" function="internal">
        <lane id=":1542204137_13_0" index="0" allow="pedestrian delivery bicycle" speed="5.56" length="9.52" shape="926.37,990.77 932.52,983.51"/>
    </edge>
    <edge id=":1542204137_14" function="internal">
        <lane id=":1542204137_14_0" index="0" allow="pedestrian delivery bicycle" speed="5.56" length="10.27" shape="926.37,990.77 928.48,988.90 930.68,988.17 932.95,988.58 935.31,990.14"/>
    </edge>
    <edge id=":1542204137_15" function="internal">
        <lane id=":1542204137_15_0" index="0" allow="pedestrian delivery bicycle" speed="3.65" length="4.67" shape="926.37,990.77 927.76,990.37 928.63,990.59 928.98,991.41 928.81,992.84"/>
    </edge>
    <edge id=":1542204165_0" function="internal">
        <lane id=":1542204165_0_0" index="0" allow="delivery bicycle" speed="5.17" length="5.14" shape="953.13,969.43 951.99,968.71 950.85,968.54 949.72,968.91 948.60,969.83"/>
    </edge>
    <edge id=":1542204165_1" function="internal">
        <lane id=":1542204165_1_0" index="0" disallow="pedestrian tram rail_urban rail rail_electric rail_fast ship" speed="13.89" length="9.37" shape="953.13,969.43 946.08,963.25"/>
    </edge>
    <edge id=":1542204165_2" function="internal">
        <lane id=":1542204165_2_0" index="0" disallow="pedestrian tram rail_urban rail rail_electric rail_fast ship" speed="13.89" length="9.31" shape="948.21,960.86 955.22,967.00"/>
    </edge>
    <edge id=":1542204165_3" function="internal">
        <lane id=":1542204165_3_0" index="0" allow="delivery bicycle" speed="6.84" length="5.15" shape="948.21,960.86 950.04,963.03 950.71,965.24"/>
    </edge>
    <edge id=":1542204165_7" function="internal">
        <lane id=":1542204165_7_0" index="0" allow="delivery bicycle" speed="6.84" length="5.15" shape="950.71,965.24 950.23,967.51 948.60,969.83"/>
    </edge>
    <edge id=":1542204165_4" function="internal">
        <lane id=":1542204165_4_0" index="0" allow="delivery bicycle" speed="5.01" length="5.03" shape="946.27,967.63 947.07,966.50 947.30,965.39 946.97,964.31 946.08,963.25"/>
    </edge>
    <edge id=":1542204165_5" function="internal">
        <lane id=":1542204165_5_0" index="0" allow="delivery bicycle" speed="6.96" length="10.13" shape="946.27,967.63 948.46,965.87 950.68,965.17 952.93,965.55 955.22,967.00"/>
    </edge>
    <edge id=":1542204165_6" function="internal">
        <lane id=":1542204165_6_0" index="0" allow="pedestrian delivery bicycle" speed="3.65" length="4.67" shape="946.27,967.63 947.68,967.31 948.53,967.56 948.84,968.40 948.60,969.83"/>
    </edge>
    <edge id=":1542204195_0" function="internal">
        <lane id=":1542204195_0_0" index="0" allow="pedestrian delivery bicycle" speed="3.65" length="4.67" shape="617.76,1013.55 618.16,1014.93 617.95,1015.80 617.13,1016.15 615.69,1015.99"/>
    </edge>
    <edge id=":1542285569_0" function="internal">
        <lane id=":1542285569_0_0" index="0" allow="pedestrian bicycle" speed="4.17" length="3.98" width="2.00" shape="448.95,974.32 448.28,974.70 447.66,975.34 447.11,976.24 446.61,977.40"/>
    </edge>
    <edge id=":1542285569_1" function="internal">
        <lane id=":1542285569_1_0" index="0" allow="pedestrian motorcycle moped bicycle" speed="3.65" length="4.67" shape="448.95,974.32 447.55,973.97 446.91,973.34 447.02,972.46 447.89,971.31"/>
    </edge>
    <edge id=":1542285569_2" function="internal">
        <lane id=":1542285569_2_0" index="0" allow="pedestrian bicycle" speed="4.17" length="6.38" shape="444.73,976.72 445.60,974.53 446.41,972.90 447.18,971.82 447.89,971.31"/>
    </edge>
    <edge id=":16527604_0" function="internal">
        <lane id=":16527604_0_0" index="0" disallow="pedestrian tram rail_urban rail rail_electric rail_fast ship" speed="3.65" length="4.67" shape="466.85,1353.29 465.48,1353.75 464.61,1353.58 464.22,1352.77 464.32,1351.33"/>
    </edge>
    <edge id=":1659064515_0" function="internal">