<?xml version="1.0" encoding="UTF-8"?>
<!-- generated on 2021-12-14 17:48:27.065104 by randomTrips.py UNKNOWN
  options: -n hm_map.net.xml -e 100 -o hm_map.trips.xml
-->
<routes xmlns:xsi="http://www.w3.org/2001/XMLSchema-instance" xsi:noNamespaceSchemaLocation="http://sumo.dlr.de/xsd/routes_file.xsd">
    <trip id="0" depart="0.00" from="312549779#2" to="-163989140#5"/>
    <trip id="1" depart="1.00" from="-4520029#5" to="-4060426#4"/>
    <trip id="2" depart="2.00" from="392103885#2" to="37280968#2"/>
    <trip id="3" depart="3.00" from="4520030#7" to="-272429536#1"/>
    <trip id="4" depart="4.00" from="151850904#0" to="-163989140#6"/>
    <trip id="5" depart="5.00" from="-4060426#3" to="163989146#1"/>
    <trip id="6" depart="6.00" from="-163989140#4" to="-4060426#0"/>
    <trip id="7" depart="7.00" from="312549780" to="24998362#11"/>
    <trip id="8" depart="8.00" from="-4060426#3" to="278513971#0"/>
    <trip id="9" depart="9.00" from="4520029#10" to="-163989140#1"/>
    <trip id="10" depart="10.00" from="4520029#1" to="38349616#2"/>
    <trip id="11" depart="11.00" from="-4645396#0" to="-312549780"/>
    <trip id="12" depart="12.00" from="58312556#0" to="-4645396#0"/>
    <trip id="13" depart="13.00" from="-163989146#3" to="-278513971#0"/>
    <trip id="14" depart="14.00" from="4520029#8" to="278513971#4"/>
    <trip id="15" depart="15.00" from="4520029#10" to="38759699#5"/>
    <trip id="16" depart="16.00" from="24998362#11" to="58312556#3"/>
    <trip id="17" depart="17.00" from="-501462498#3" to="24998362#2"/>
    <trip id="18" depart="18.00" from="4520029#4" to="292630184#2"/>
    <trip id="19" depart="19.00" from="4520030#1" to="24998362#7"/>
    <trip id="20" depart="20.00" from="38759699#3" to="-163989140#8"/>
    <trip id="21" depart="21.00" from="-4060426#4" to="-4520029#9"/>
    <trip id="22" depart="22.00" from="-163989146#1" to="-4520027#1"/>
    <trip id="23" depart="23.00" from="-278513971#0" to="-4520029#7"/>
    <trip id="24" depart="24.00" from="312549779#0" to="-501462498#1"/>
    <trip id="25" depart="25.00" from="-501462498#1" to="-4060426#2"/>
    <trip id="26" depart="26.00" from="-4520029#3" to="4673735#3"/>
    <trip id="27" depart="27.00" from="312549779#3" to="278513971#5"/>
    <trip id="28" depart="28.00" from="-392103885#1" to="38759699#5"/>
    <trip id="29" depart="29.00" from="-312549780" to="-58312556#0"/>
    <trip id="30" depart="30.00" from="851113019#2" to="30816697#5"/>
    <trip id="31" depart="31.00" from="24998362#5" to="37280968#3"/>
    <trip id="32" depart="32.00" from="4520029#8" to="4060426#2"/>
    <trip id="33" depart="33.00" from="-4262232#1" to="-163989140#6"/>
    <trip id="34" depart="34.00" from="-4520030#2" to="-4520029#4"/>
    <trip id="35" depart="35.00" from="-4060426#2" to="501462498#0"/>
    <trip id="36" depart="36.00" from="4520030#4" to="-4520030#4"/>
    <trip id="37" depart="37.00" from="313576543#1" to="-58312556#3"/>
    <trip id="38" depart="38.00" from="4645396#4" to="163989140#5"/>
    <trip id="39" depart="39.00" from="-4520029#3" to="-4520029#1"/>
    <trip id="40" depart="40.00" from="24998362#5" to="-4520029#3"/>
    <trip id="41" depart="41.00" from="278513971#0" to="4520030#7"/>
    <trip id="42" depart="42.00" from="-58312556#4" to="-4060426#3"/>
    <trip id="43" depart="43.00" from="851177627#0" to="163989146#2"/>
    <trip id="44" depart="44.00" from="-163989146#3" to="-163989140#9"/>
    <trip id="45" depart="45.00" from="-278513971#1" to="30816697#3"/>
    <trip id="46" depart="46.00" from="4520027#1" to="151850904#2"/>
    <trip id="47" depart="47.00" from="-163989143#0" to="-58312556#1"/>
    <trip id="48" depart="48.00" from="851177627#0" to="24998184#1"/>
    <trip id="49" depart="49.00" from="58312556#3" to="4520029#9"/>
    <trip id="50" depart="50.00" from="-163989140#1" to="38759699#3"/>
    <trip id="51" depart="51.00" from="38349616#2" to="24998362#1"/>
    <trip id="52" depart="52.00" from="-4520029#3" to="30816697#5"/>
    <trip id="53" depart="53.00" from="-278513971#2" to="163989140#1"/>
    <trip id="54" depart="54.00" from="163989140#4" to="501462498#2"/>
    <trip id="55" depart="55.00" from="4520030#4" to="-4520029#3"/>
    <trip id="56" depart="56.00" from="163989146#0" to="-392103885#2"/>
    <trip id="57" depart="57.00" from="4645396#4" to="4520030#1"/>
    <trip id="58" depart="58.00" from="-4520030#0" to="30816697#5"/>
    <trip id="59" depart="59.00" from="292630184#1" to="-312549780"/>
    <trip id="60" depart="60.00" from="4060426#1" to="24998362#10"/>
    <trip id="61" depart="61.00" from="4060426#4" to="24998184#1"/>
    <trip id="62" depart="62.00" from="-163989140#0" to="-4520030#6"/>
    <trip id="63" depart="63.00" from="-163989140#2" to="4673735#1"/>
    <trip id="64" depart="64.00" from="4520030#5" to="4520029#3"/>
    <trip id="65" depart="65.00" from="-4520030#1" to="-163989143#2"/>
    <trip id="66" depart="66.00" from="4520030#5" to="501462498#0"/>
    <trip id="67" depart="67.00" from="-163989146#2" to="163989143#0"/>
    <trip id="68" depart="68.00" from="-163989143#2" to="39322226#2"/>
    <trip id="69" depart="69.00" from="4060426#1" to="-292630184#2"/>
    <trip id="70" depart="70.00" from="163989140#8" to="24998362#2"/>
    <trip id="71" depart="71.00" from="-4520029#3" to="4520030#1"/>
    <trip id="72" depart="72.00" from="151850904#0" to="-4060426#2"/>
    <trip id="73" depart="73.00" from="24998362#2" to="38759699#5"/>
    <trip id="74" depart="74.00" from="-39322226#3" to="-4520030#2"/>
    <trip id="75" depart="75.00" from="851177627#0" to="312549779#2"/>
    <trip id="76" depart="76.00" from="163989140#0" to="163989146#3"/>
    <trip id="77" depart="77.00" from="-278513971#4" to="-4060426#4"/>
    <trip id="78" depart="78.00" from="-4520030#7" to="278513971#0"/>
    <trip id="79" depart="79.00" from="-4262232#1" to="-4060426#4"/>
    <trip id="80" depart="80.00" from="-163989146#0" to="30816697#4"/>
    <trip id="81" depart="81.00" from="-4262232#1" to="4645396#0"/>
    <trip id="82" depart="82.00" from="4520030#0" to="-163989146#1"/>
    <trip id="83" depart="83.00" from="-4520027#1" to="313576543#1"/>
    <trip id="84" depart="84.00" from="-4060426#2" to="-292630184#2"/>
    <trip id="85" depart="85.00" from="4673739" to="24998362#5"/>
    <trip id="86" depart="86.00" from="163989140#7" to="4060426#3"/>
    <trip id="87" depart="87.00" from="4520029#10" to="-39322226#1"/>
    <trip id="88" depart="88.00" from="-272429536#1" to="163989140#0"/>
    <trip id="89" depart="89.00" from="151850904#0" to="163989140#6"/>
    <trip id="90" depart="90.00" from="392103885#1" to="37280968#1"/>
    <trip id="91" depart="91.00" from="851113019#0" to="-278513971#1"/>
    <trip id="92" depart="92.00" from="-58312556#4" to="-4645396#0"/>
    <trip id="93" depart="93.00" from="4520030#1" to="-4520029#10"/>
    <trip id="94" depart="94.00" from="-39322226#1" to="163989140#2"/>
    <trip id="95" depart="95.00" from="151850904#0" to="-4520029#7"/>
    <trip id="96" depart="96.00" from="-4520029#1" to="4645396#4"/>
    <trip id="97" depart="97.00" from="163989140#1" to="4520030#0"/>
    <trip id="98" depart="98.00" from="24998362#4" to="-163989140#9"/>
    <trip id="99" depart="99.00" from="851177627#0" to="4520029#4"/>
</routes>
