<?xml version="1.0" encoding="UTF-8"?>

<configuration xmlns:xsi="http://www.w3.org/2001/XMLSchema-instance" xsi:noNamespaceSchemaLocation="http://sumo.dlr.de/xsd/sumoConfiguration.xsd">

    <input>
        <net-file value="hm_map_ped.net.xml"/>
        <route-files value="hm_map_ped.rou.xml"/>
    </input>

    <time>
        <step-length value="0.1"/>
    </time>

    <gui_only>
        <start value="false"/>
    </gui_only>

</configuration>
