<?xml version="1.0" encoding="UTF-8"?>

<!-- generated on Tue 26 Nov 2019 04:59:59 PM CET by Eclipse SUMO netedit Version v1_3_1+0207-e5522cc340
<configuration xmlns:xsi="http://www.w3.org/2001/XMLSchema-instance" xsi:noNamespaceSchemaLocation="http://sumo.dlr.de/xsd/netconvertConfiguration.xsd">

    <input>
        <sumo-net-file value="/home/stsc/repos/rover-main/vadere/Scenarios/Demos/roVer/scenarios/mf_base_new2.net.xml"/>
    </input>

    <output>
        <output-file value="/home/stsc/repos/rover-main/vadere/Scenarios/Demos/roVer/scenarios/mf_base_new2.net.xml"/>
    </output>

    <processing>
        <geometry.max-grade.fix value="false"/>
        <offset.disable-normalization value="true"/>
        <lefthand value="false"/>
    </processing>

    <junctions>
        <no-internal-links value="false"/>
        <no-turnarounds value="true"/>
        <junctions.corner-detail value="5"/>
        <junctions.limit-turn-speed value="5.5"/>
        <rectangular-lane-cut value="false"/>
    </junctions>

    <pedestrian>
        <walkingareas value="false"/>
    </pedestrian>

</configuration>
-->

<net version="1.3" junctionCornerDetail="5" limitTurnSpeed="5.50" xmlns:xsi="http://www.w3.org/2001/XMLSchema-instance" xsi:noNamespaceSchemaLocation="http://sumo.dlr.de/xsd/net_file.xsd">

    <location netOffset="-691444.68,-5335504.47" convBoundary="0.00,0.00,1435.54,3081.29" origBoundary="11.548225,48.117927,11.594341,48.171410" projParameter="+proj=utm +zone=32 +ellps=WGS84 +datum=WGS84 +units=m +no_defs"/>

    <type id="highway.bridleway" priority="1" numLanes="1" speed="2.78" allow="pedestrian" oneway="1" width="2.00"/>
    <type id="highway.bus_guideway" priority="1" numLanes="1" speed="27.78" allow="bus" oneway="1"/>
    <type id="highway.cycleway" priority="1" numLanes="1" speed="8.33" allow="bicycle" oneway="0" width="1.00"/>
    <type id="highway.footway" priority="1" numLanes="1" speed="2.78" allow="pedestrian" oneway="1" width="2.00"/>
    <type id="highway.ford" priority="1" numLanes="1" speed="2.78" allow="army" oneway="0"/>
    <type id="highway.living_street" priority="2" numLanes="1" speed="2.78" disallow="tram rail_urban rail rail_electric rail_fast ship" oneway="0"/>
    <type id="highway.motorway" priority="14" numLanes="2" speed="39.44" allow="private emergency authority army vip passenger hov taxi bus coach delivery truck trailer motorcycle evehicle custom1 custom2" oneway="1"/>
    <type id="highway.motorway_link" priority="9" numLanes="1" speed="22.22" allow="private emergency authority army vip passenger hov taxi bus coach delivery truck trailer motorcycle evehicle custom1 custom2" oneway="1"/>
    <type id="highway.path" priority="1" numLanes="1" speed="2.78" allow="pedestrian bicycle" oneway="1" width="2.00"/>
    <type id="highway.pedestrian" priority="1" numLanes="1" speed="2.78" allow="pedestrian" oneway="1" width="2.00"/>
    <type id="highway.primary" priority="12" numLanes="2" speed="27.78" disallow="tram rail_urban rail rail_electric rail_fast ship" oneway="0"/>
    <type id="highway.primary_link" priority="7" numLanes="1" speed="22.22" disallow="tram rail_urban rail rail_electric rail_fast ship" oneway="0"/>
    <type id="highway.raceway" priority="15" numLanes="2" speed="83.33" allow="vip" oneway="0"/>
    <type id="highway.residential" priority="3" numLanes="1" speed="13.89" disallow="tram rail_urban rail rail_electric rail_fast ship" oneway="0"/>
    <type id="highway.secondary" priority="11" numLanes="1" speed="27.78" disallow="tram rail_urban rail rail_electric rail_fast ship" oneway="0"/>
    <type id="highway.secondary_link" priority="6" numLanes="1" speed="22.22" disallow="tram rail_urban rail rail_electric rail_fast ship" oneway="0"/>
    <type id="highway.service" priority="1" numLanes="1" speed="5.56" allow="pedestrian delivery bicycle" oneway="0"/>
    <type id="highway.stairs" priority="1" numLanes="1" speed="1.39" allow="pedestrian" oneway="1" width="2.00"/>
    <type id="highway.step" priority="1" numLanes="1" speed="1.39" allow="pedestrian" oneway="1" width="2.00"/>
    <type id="highway.steps" priority="1" numLanes="1" speed="1.39" allow="pedestrian" oneway="1" width="2.00"/>
    <type id="highway.tertiary" priority="10" numLanes="1" speed="22.22" disallow="tram rail_urban rail rail_electric rail_fast ship" oneway="0"/>
    <type id="highway.tertiary_link" priority="5" numLanes="1" speed="22.22" disallow="tram rail_urban rail rail_electric rail_fast ship" oneway="0"/>
    <type id="highway.track" priority="1" numLanes="1" speed="5.56" disallow="tram rail_urban rail rail_electric rail_fast ship" oneway="0"/>
    <type id="highway.trunk" priority="13" numLanes="2" speed="27.78" disallow="pedestrian bicycle tram rail_urban rail rail_electric rail_fast ship" oneway="0"/>
    <type id="highway.trunk_link" priority="8" numLanes="1" speed="22.22" disallow="pedestrian bicycle tram rail_urban rail rail_electric rail_fast ship" oneway="0"/>
    <type id="highway.unclassified" priority="4" numLanes="1" speed="13.89" disallow="tram rail_urban rail rail_electric rail_fast ship" oneway="0"/>
    <type id="highway.unsurfaced" priority="1" numLanes="1" speed="8.33" disallow="tram rail_urban rail rail_electric rail_fast ship" oneway="0"/>
    <type id="railway.highspeed" priority="21" numLanes="1" speed="69.44" allow="rail_fast" oneway="1"/>
    <type id="railway.light_rail" priority="19" numLanes="1" speed="27.78" allow="rail_urban" oneway="1"/>
    <type id="railway.preserved" priority="16" numLanes="1" speed="27.78" allow="rail" oneway="1"/>
    <type id="railway.rail" priority="20" numLanes="1" speed="44.44" allow="rail" oneway="1"/>
    <type id="railway.subway" priority="18" numLanes="1" speed="27.78" allow="rail_urban" oneway="1"/>
    <type id="railway.tram" priority="17" numLanes="1" speed="13.89" allow="tram" oneway="1"/>

    <edge id=":1156427688_0" function="internal">
        <lane id=":1156427688_0_0" index="0" allow="bicycle" speed="8.33" length="0.23" width="1.00" shape="856.63,2050.44 856.63,2050.22"/>
    </edge>
    <edge id=":1156427688_1" function="internal">
        <lane id=":1156427688_1_0" index="0" allow="bicycle" speed="2.04" length="0.73" width="1.00" shape="856.63,2050.44 856.87,2050.06 857.12,2049.93"/>
    </edge>
    <edge id=":1156427688_4" function="internal">
        <lane id=":1156427688_4_0" index="0" allow="bicycle" speed="2.04" length="0.73" width="1.00" shape="857.12,2049.93 857.37,2050.05 857.63,2050.42"/>
    </edge>
    <edge id=":1156427688_2" function="internal">
        <lane id=":1156427688_2_0" index="0" allow="bicycle" speed="8.33" length="0.18" width="1.00" shape="857.63,2050.24 857.63,2050.42"/>
    </edge>
    <edge id=":1156427688_3" function="internal">
        <lane id=":1156427688_3_0" index="0" allow="bicycle" speed="2.04" length="0.73" width="1.00" shape="857.63,2050.24 857.37,2050.61 857.12,2050.73"/>
    </edge>
    <edge id=":1156427688_5" function="internal">
        <lane id=":1156427688_5_0" index="0" allow="bicycle" speed="2.04" length="0.73" width="1.00" shape="857.12,2050.73 856.87,2050.60 856.63,2050.22"/>
    </edge>
    <edge id=":1305556368_0" function="internal">
        <lane id=":1305556368_0_0" index="0" allow="pedestrian" speed="2.78" length="4.05" width="2.00" shape="947.69,2175.75 948.12,2176.78 948.78,2177.41 949.66,2177.64 950.76,2177.48"/>
    </edge>
    <edge id=":1305556368_1" function="internal">
        <lane id=":1305556368_1_0" index="0" allow="pedestrian" speed="2.78" length="5.05" width="2.00" shape="947.69,2175.75 949.08,2180.60"/>
    </edge>
    <edge id=":1305556368_w0" function="walkingarea">
        <lane id=":1305556368_w0_0" index="0" allow="pedestrian" speed="1.00" length="4.04" width="2.00" shape="948.12,2180.90 950.03,2180.30 951.04,2178.43 950.47,2176.52 948.66,2175.49 946.72,2176.00"/>
    </edge>
    <edge id=":1305971768_0" function="internal">
        <lane id=":1305971768_0_0" index="0" allow="tram" speed="13.89" length="0.28" shape="814.04,3038.43 814.02,3038.71"/>
    </edge>
    <edge id=":1334594113_0" function="internal">
        <lane id=":1334594113_0_0" index="0" allow="tram" speed="13.89" length="0.24" shape="811.08,3038.44 811.11,3038.20"/>
    </edge>
    <edge id=":1404411555_0" function="internal">
        <lane id=":1404411555_0_0" index="0" disallow="pedestrian tram rail_urban rail rail_electric rail_fast ship" speed="13.89" length="0.10" shape="832.55,2027.91 832.63,2027.89"/>
    </edge>
    <edge id=":1404411555_1" function="internal">
        <lane id=":1404411555_1_0" index="0" disallow="pedestrian tram rail_urban rail rail_electric rail_fast ship" speed="13.89" length="0.10" shape="831.95,2024.77 832.03,2024.75"/>
    </edge>
    <edge id=":2203963770_0" function="internal">
        <lane id=":2203963770_0_0" index="0" allow="pedestrian" speed="2.78" length="0.30" width="2.00" shape="636.19,1152.05 636.11,1151.77"/>
    </edge>
    <edge id=":2203963809_0" function="internal">
        <lane id=":2203963809_0_0" index="0" allow="pedestrian" speed="2.78" length="0.10" width="2.00" shape="733.38,1507.11 733.38,1507.11"/>
    </edge>
    <edge id=":2203963817_0" function="internal">
        <lane id=":2203963817_0_0" index="0" allow="pedestrian" speed="2.78" length="0.10" width="2.00" shape="795.39,1734.20 795.39,1734.20"/>
    </edge>
    <edge id=":2509348138_0" function="internal">
        <lane id=":2509348138_0_0" index="0" allow="pedestrian delivery bicycle" speed="5.56" length="0.10" shape="751.99,1954.27 751.97,1954.18"/>
    </edge>
    <edge id=":2509348138_1" function="internal">
        <lane id=":2509348138_1_0" index="0" allow="pedestrian delivery bicycle" speed="5.56" length="0.10" shape="755.09,1953.46 755.07,1953.37"/>
    </edge>
    <edge id=":2509348138_w0" function="walkingarea">
        <lane id=":2509348138_w0_0" index="0" allow="pedestrian" speed="1.00" length="2.17" width="3.20" shape="750.46,1954.72 753.53,1953.82 753.53,1953.82 756.60,1952.92 756.65,1953.11 753.53,1953.82 753.53,1953.82 750.41,1954.53"/>
    </edge>
    <edge id=":2509348140_0" function="internal">
        <lane id=":2509348140_0_0" index="0" allow="pedestrian delivery bicycle" speed="5.56" length="0.36" shape="756.80,1970.65 756.69,1970.32"/>
    </edge>
    <edge id=":2509348140_1" function="internal">
        <lane id=":2509348140_1_0" index="0" allow="pedestrian delivery bicycle" speed="5.56" length="0.12" shape="759.76,1969.42 759.80,1969.53"/>
    </edge>
    <edge id=":2509348140_w0" function="walkingarea">
        <lane id=":2509348140_w0_0" index="0" allow="pedestrian" speed="1.00" length="2.21" width="3.20" shape="755.31,1971.21 758.30,1970.09 758.30,1970.09 761.30,1968.97 761.30,1968.97 758.23,1969.87 758.23,1969.87 755.16,1970.77"/>
    </edge>
    <edge id=":2518516445_0" function="internal">
        <lane id=":2518516445_0_0" index="0" allow="pedestrian delivery bicycle" speed="4.85" length="5.26" shape="816.22,1935.36 815.92,1933.90 815.22,1932.99 814.13,1932.63 812.66,1932.82"/>
    </edge>
    <edge id=":2518516445_1" function="internal">
        <lane id=":2518516445_1_0" index="0" allow="pedestrian delivery bicycle" speed="5.56" length="10.42" shape="816.22,1935.36 816.37,1932.32 817.26,1929.97 818.88,1928.31 821.24,1927.34"/>
    </edge>
    <edge id=":2518516445_2" function="internal">
        <lane id=":2518516445_2_0" index="0" allow="pedestrian delivery bicycle" speed="3.65" length="4.67" shape="816.22,1935.36 816.94,1934.11 817.72,1933.66 818.54,1934.01 819.41,1935.15"/>
    </edge>
    <edge id=":2518516445_3" function="internal">
        <lane id=":2518516445_3_0" index="0" allow="pedestrian delivery bicycle" speed="5.56" length="5.85" shape="821.95,1930.47 820.74,1931.00 819.92,1931.95 819.48,1933.34 819.41,1935.15"/>
    </edge>
    <edge id=":2518516445_4" function="internal">
        <lane id=":2518516445_4_0" index="0" allow="pedestrian delivery bicycle" speed="5.56" length="9.58" shape="821.95,1930.47 812.66,1932.82"/>
    </edge>
    <edge id=":2518516445_5" function="internal">
        <lane id=":2518516445_5_0" index="0" allow="pedestrian delivery bicycle" speed="3.65" length="4.67" shape="821.95,1930.47 820.60,1929.95 820.03,1929.26 820.25,1928.39 821.24,1927.34"/>
    </edge>
    <edge id=":2518516445_6" function="internal">
        <lane id=":2518516445_6_0" index="0" allow="pedestrian delivery bicycle" speed="5.56" length="9.72" shape="811.81,1929.73 821.24,1927.34"/>
    </edge>
    <edge id=":2518516445_7" function="internal">
        <lane id=":2518516445_7_0" index="0" allow="pedestrian delivery bicycle" speed="5.56" length="11.23" shape="811.81,1929.73 814.96,1929.34 817.28,1930.11 818.76,1932.05 819.41,1935.15"/>
    </edge>
    <edge id=":2518516445_8" function="internal">
        <lane id=":2518516445_8_0" index="0" allow="pedestrian delivery bicycle" speed="3.65" length="4.67" shape="811.81,1929.73 813.18,1930.18 813.78,1930.85 813.61,1931.73 812.66,1932.82"/>
    </edge>
    <edge id=":2518516445_w0" function="walkingarea">
        <lane id=":2518516445_w0_0" index="0" allow="pedestrian" speed="1.00" length="7.17" width="3.20" shape="814.62,1935.46 817.82,1935.26 817.82,1935.26 821.01,1935.05 822.30,1932.03 821.59,1928.91 821.59,1928.91 820.89,1925.78 811.39,1928.19 812.24,1931.27 812.24,1931.27 813.08,1934.36 814.55,1935.01 814.41,1934.67 814.19,1934.44 813.90,1934.31 813.53,1934.28"/>
    </edge>
    <edge id=":2562202576_0" function="internal">
        <lane id=":2562202576_0_0" index="0" allow="rail_urban" speed="27.78" length="9.05" shape="861.07,1911.19 861.87,1913.75 862.62,1915.42 863.53,1917.04 864.80,1919.41"/>
    </edge>
    <edge id=":2562202576_1" function="internal">
        <lane id=":2562202576_1_0" index="0" allow="rail_urban" speed="27.78" length="9.06" shape="861.07,1911.19 861.60,1913.79 861.60,1915.62 861.31,1917.48 860.98,1920.16"/>
    </edge>
    <edge id=":2579753000_0" function="internal">
        <lane id=":2579753000_0_0" index="0" allow="pedestrian" speed="8.33" length="0.10" width="2.00" shape="1086.05,1980.36 1086.05,1980.36"/>
    </edge>
    <edge id=":2579753000_1" function="internal">
        <lane id=":2579753000_1_0" index="0" allow="pedestrian" speed="5.12" length="6.13" width="2.00" shape="1086.05,1980.36 1086.68,1976.62 1088.16,1974.81"/>
    </edge>
    <edge id=":2579753000_2" function="internal">
        <lane id=":2579753000_2_0" index="0" disallow="pedestrian tram rail_urban rail rail_electric rail_fast ship" speed="8.33" length="0.10" shape="1088.42,1979.29 1088.42,1979.29"/>
    </edge>
    <edge id=":2579753000_7" function="internal">
        <lane id=":2579753000_7_0" index="0" allow="pedestrian" speed="5.12" length="6.13" width="2.00" shape="1088.16,1974.81 1090.51,1974.91 1093.71,1976.92"/>
    </edge>
    <edge id=":2579753000_3" function="internal">
        <lane id=":2579753000_3_0" index="0" allow="pedestrian" speed="8.33" length="0.10" width="2.00" shape="1093.71,1976.92 1093.71,1976.92"/>
    </edge>
    <edge id=":2579753000_4" function="internal">
        <lane id=":2579753000_4_0" index="0" allow="pedestrian" speed="5.12" length="6.13" width="2.00" shape="1093.71,1976.92 1093.08,1980.66 1091.60,1982.47"/>
    </edge>
    <edge id=":2579753000_5" function="internal">
        <lane id=":2579753000_5_0" index="0" disallow="pedestrian tram rail_urban rail rail_electric rail_fast ship" speed="8.33" length="0.10" shape="1091.34,1977.99 1091.34,1977.99"/>
    </edge>
    <edge id=":2579753000_6" function="internal">
        <lane id=":2579753000_6_0" index="0" disallow="pedestrian tram rail_urban rail rail_electric rail_fast ship" speed="3.65" length="2.34" shape="1091.34,1977.99 1091.10,1979.41 1090.53,1980.10"/>
    </edge>
    <edge id=":2579753000_8" function="internal">
        <lane id=":2579753000_8_0" index="0" allow="pedestrian" speed="5.12" length="6.13" width="2.00" shape="1091.60,1982.47 1089.25,1982.37 1086.05,1980.36"/>
    </edge>
    <edge id=":2579753000_9" function="internal">
        <lane id=":2579753000_9_0" index="0" disallow="pedestrian tram rail_urban rail rail_electric rail_fast ship" speed="3.65" length="2.34" shape="1090.53,1980.10 1089.64,1980.06 1088.42,1979.29"/>
    </edge>
    <edge id=":2579753000_w0" function="walkingarea">
        <lane id=":2579753000_w0_0" index="0" allow="pedestrian" speed="1.00" length="0.10" width="2.00" shape="1086.96,1979.95 1085.13,1980.76 1085.13,1980.76 1086.96,1979.95"/>
    </edge>
    <edge id=":2579753000_w1" function="walkingarea">
        <lane id=":2579753000_w1_0" index="0" allow="pedestrian" speed="1.00" length="0.10" width="2.00" shape="1092.80,1977.33 1094.63,1976.52 1094.63,1976.52 1092.80,1977.33"/>
    </edge>
    <edge id=":259839368_0" function="internal">
        <lane id=":259839368_0_0" index="0" allow="pedestrian" speed="13.89" length="0.70" width="2.00" shape="1052.55,1991.36 1052.58,1991.27 1052.59,1991.21 1052.59,1991.15 1052.59,1991.06"/>
        <lane id=":259839368_0_1" index="1" disallow="pedestrian tram rail_urban rail rail_electric rail_fast ship" speed="12.30" length="0.70" shape="1055.06,1992.06 1055.14,1991.75 1055.18,1991.53 1055.19,1991.31 1055.19,1990.98"/>
    </edge>
    <edge id=":259839368_w0" function="walkingarea">
        <lane id=":259839368_w0_0" index="0" allow="pedestrian" speed="1.00" length="0.30" width="2.00" shape="1053.59,1991.03 1051.59,1991.09 1051.59,1991.09 1053.52,1991.63 1053.55,1991.51 1053.57,1991.41 1053.59,1991.33 1053.59,1991.26 1053.59,1991.16"/>
    </edge>
    <edge id=":260827624_0" function="internal">
        <lane id=":260827624_0_0" index="0" allow="pedestrian" speed="5.12" length="6.24" width="2.00" shape="962.57,2178.38 958.99,2177.16 957.43,2175.40 957.90,2173.10 958.60,2172.31"/>
        <lane id=":260827624_0_1" index="1" disallow="pedestrian tram rail_urban rail rail_electric rail_fast ship" speed="3.65" length="6.24" shape="961.90,2175.86 960.54,2175.40 959.94,2174.73 960.07,2174.13"/>
    </edge>
    <edge id=":260827624_3" function="internal">
        <lane id=":260827624_3_0" index="0" allow="pedestrian" speed="5.12" length="2.74" width="2.00" shape="958.60,2172.31 960.41,2170.26"/>
    </edge>
    <edge id=":260827624_4" function="internal">
        <lane id=":260827624_4_0" index="0" disallow="pedestrian tram rail_urban rail rail_electric rail_fast ship" speed="3.65" length="1.72" shape="960.07,2174.13 960.12,2173.86 961.08,2172.77"/>
    </edge>
    <edge id=":260827624_2" function="internal">
        <lane id=":260827624_2_0" index="0" allow="pedestrian" speed="5.55" length="5.17" width="2.00" shape="958.64,2175.12 960.41,2170.26"/>
    </edge>
    <edge id=":260827624_w0" function="walkingarea">
        <lane id=":260827624_w0_0" index="0" allow="pedestrian" speed="1.00" length="6.22" width="2.00" shape="960.66,2171.23 960.15,2169.29 958.36,2174.16 958.93,2176.08 962.83,2179.34 962.31,2177.41"/>
    </edge>
    <edge id=":2635397004_0" function="internal">
        <lane id=":2635397004_0_0" index="0" allow="pedestrian" speed="2.78" length="6.28" width="2.00" shape="928.54,2096.68 930.25,2102.72"/>
    </edge>
    <edge id=":2635397004_1" function="internal">
        <lane id=":2635397004_1_0" index="0" allow="pedestrian" speed="4.92" length="4.71" width="2.00" shape="926.90,2100.29 928.11,2100.22 929.07,2100.60 929.78,2101.44 930.25,2102.72"/>
    </edge>
    <edge id=":2635397004_w0" function="walkingarea">
        <lane id=":2635397004_w0_0" index="0" allow="pedestrian" speed="1.00" length="4.79" width="3.20" shape="929.27,2102.94 931.22,2102.50 929.50,2096.39 927.58,2096.97 926.55,2098.73 927.24,2101.86 929.11,2102.45 928.88,2102.11 928.59,2101.88 928.21,2101.78 927.77,2101.77"/>
    </edge>
    <edge id=":2635397020_0" function="internal">
        <lane id=":2635397020_0_0" index="0" allow="pedestrian" speed="2.78" length="6.53" width="2.00" shape="903.01,2180.03 901.30,2180.13 900.04,2179.56 899.23,2178.31 898.85,2176.40"/>
    </edge>
    <edge id=":2635397020_1" function="internal">
        <lane id=":2635397020_1_0" index="0" allow="pedestrian" speed="2.78" length="5.23" width="2.00" shape="903.01,2180.03 901.48,2180.17 900.73,2179.73 900.77,2178.71 901.60,2177.10"/>
    </edge>
    <edge id=":2635397020_2" function="internal">
        <lane id=":2635397020_2_0" index="0" allow="pedestrian" speed="2.78" length="5.61" width="2.00" shape="896.48,2180.62 897.64,2180.46 898.41,2179.70 898.82,2178.35 898.85,2176.40"/>
    </edge>
    <edge id=":2635397020_3" function="internal">
        <lane id=":2635397020_3_0" index="0" allow="pedestrian" speed="2.78" length="6.52" width="2.00" shape="896.48,2180.62 897.81,2180.51 899.10,2179.88 900.37,2178.75 901.60,2177.10"/>
    </edge>
    <edge id=":2635397020_w0" function="walkingarea">
        <lane id=":2635397020_w0_0" index="0" allow="pedestrian" speed="1.00" length="4.87" width="2.00" shape="903.23,2181.01 902.79,2179.06 902.44,2177.65 900.76,2176.56 899.85,2176.33 897.85,2176.47 896.59,2179.63 896.38,2181.61 901.79,2181.34 900.72,2181.58 899.83,2181.73 898.93,2181.78 897.84,2181.75"/>
    </edge>
    <edge id=":2640786637_0" function="internal">
        <lane id=":2640786637_0_0" index="0" allow="bicycle" speed="6.02" length="5.01" width="1.00" shape="906.70,2084.75 906.61,2085.92 906.17,2086.99 905.39,2087.97 904.27,2088.87"/>
    </edge>
    <edge id=":2640786637_1" function="internal">
        <lane id=":2640786637_1_0" index="0" allow="bicycle" speed="2.04" length="0.73" width="1.00" shape="906.70,2084.75 906.47,2085.14 906.23,2085.29"/>
    </edge>
    <edge id=":2640786637_4" function="internal">
        <lane id=":2640786637_4_0" index="0" allow="bicycle" speed="2.04" length="0.73" width="1.00" shape="906.23,2085.29 905.98,2085.18 905.70,2084.82"/>
    </edge>
    <edge id=":2640786637_2" function="internal">
        <lane id=":2640786637_2_0" index="0" allow="bicycle" speed="5.14" length="3.90" width="1.00" shape="903.62,2087.88 904.58,2087.22 905.24,2086.49 905.62,2085.69 905.70,2084.82"/>
    </edge>
    <edge id=":2640786637_3" function="internal">
        <lane id=":2640786637_3_0" index="0" allow="bicycle" speed="2.18" length="0.29" width="1.00" shape="903.62,2087.88 903.91,2087.88"/>
    </edge>
    <edge id=":2640786637_5" function="internal">
        <lane id=":2640786637_5_0" index="0" allow="bicycle" speed="2.18" length="1.45" width="1.00" shape="903.91,2087.88 904.16,2087.88 904.44,2088.05 904.48,2088.38 904.27,2088.87"/>
    </edge>
    <edge id=":2640786646_0" function="internal">
        <lane id=":2640786646_0_0" index="0" allow="pedestrian" speed="4.49" length="4.67" shape="912.98,2106.72 912.61,2105.34 912.73,2104.28 913.35,2103.52 914.46,2103.06"/>
    </edge>
    <edge id=":2640786646_1" function="internal">
        <lane id=":2640786646_1_0" index="0" allow="pedestrian" speed="4.91" length="4.71" shape="910.91,2100.78 911.48,2102.00 912.26,2102.78 913.26,2103.14 914.46,2103.06"/>
    </edge>
    <edge id=":2640786646_w0" function="walkingarea">
        <lane id=":2640786646_w0_0" index="0" allow="pedestrian" speed="1.00" length="4.93" width="3.20" shape="912.05,2107.09 913.90,2106.34 912.05,2107.09 913.90,2106.34 914.80,2104.62 914.11,2101.50 911.86,2100.47 909.96,2101.10"/>
    </edge>
    <edge id=":2640786724_0" function="internal">
        <lane id=":2640786724_0_0" index="0" allow="pedestrian" speed="2.08" length="5.81" width="2.00" shape="913.92,2120.54 916.06,2120.80 917.41,2120.54 917.96,2119.76 917.73,2118.46"/>
    </edge>
    <edge id=":2640786724_1" function="internal">
        <lane id=":2640786724_1_0" index="0" allow="pedestrian" speed="2.08" length="6.85" width="2.00" shape="914.09,2123.25 916.16,2122.33 917.45,2121.22 917.97,2119.93 917.73,2118.46"/>
    </edge>
    <edge id=":2640786724_w0" function="walkingarea">
        <lane id=":2640786724_w0_0" index="0" allow="pedestrian" speed="1.00" length="4.69" width="2.00" shape="918.65,2118.08 916.80,2118.84 918.65,2118.08 916.80,2118.84 914.12,2119.56 913.72,2121.52 913.77,2122.31 914.41,2124.20 919.07,2119.65 918.96,2120.94 918.38,2121.98 917.39,2122.85 916.05,2123.57"/>
    </edge>
    <edge id=":2640786734_0" function="internal">
        <lane id=":2640786734_0_0" index="0" allow="pedestrian" speed="2.78" length="5.20" width="2.00" shape="893.84,2119.24 893.14,2114.09"/>
    </edge>
    <edge id=":2640786734_1" function="internal">
        <lane id=":2640786734_1_0" index="0" allow="pedestrian" speed="2.78" length="4.26" width="2.00" shape="893.84,2119.24 893.80,2118.00 894.19,2117.20 895.00,2116.84 896.24,2116.92"/>
    </edge>
    <edge id=":2640786734_w0" function="walkingarea">
        <lane id=":2640786734_w0_0" index="0" allow="pedestrian" speed="1.00" length="4.25" width="2.00" shape="892.86,2119.41 894.83,2119.07 896.04,2117.89 896.44,2115.94 894.13,2114.00 892.14,2114.18"/>
    </edge>
    <edge id=":2709447006_0" function="internal">
        <lane id=":2709447006_0_0" index="0" disallow="pedestrian tram rail_urban rail rail_electric rail_fast ship" speed="13.89" length="0.30" shape="862.61,2128.69 862.60,2128.39"/>
        <lane id=":2709447006_0_1" index="1" disallow="pedestrian tram rail_urban rail rail_electric rail_fast ship" speed="13.89" length="0.30" shape="865.80,2128.60 865.80,2128.30"/>
        <lane id=":2709447006_0_2" index="2" disallow="pedestrian tram rail_urban rail rail_electric rail_fast ship" speed="13.89" length="0.30" shape="869.00,2128.51 868.99,2128.21"/>
    </edge>
    <edge id=":2904937024_0" function="internal">
        <lane id=":2904937024_0_0" index="0" allow="pedestrian" speed="8.33" length="0.34" width="2.00" shape="998.09,1990.73 997.73,1990.85"/>
        <lane id=":2904937024_0_1" index="1" disallow="pedestrian tram rail_urban rail rail_electric rail_fast ship" speed="8.33" length="0.34" shape="997.26,1988.26 996.97,1988.36"/>
    </edge>
    <edge id=":2904937024_2" function="internal">
        <lane id=":2904937024_2_0" index="0" disallow="pedestrian tram rail_urban rail rail_electric rail_fast ship" speed="3.65" length="2.34" shape="997.26,1988.26 995.87,1987.89 995.24,1987.26"/>
    </edge>
    <edge id=":2904937024_6" function="internal">
        <lane id=":2904937024_6_0" index="0" disallow="pedestrian tram rail_urban rail rail_electric rail_fast ship" speed="3.65" length="2.34" shape="995.24,1987.26 995.36,1986.37 996.24,1985.23"/>
    </edge>
    <edge id=":2904937024_3" function="internal">
        <lane id=":2904937024_3_0" index="0" allow="pedestrian" speed="8.33" length="0.13" width="2.00" shape="995.29,1982.81 995.41,1982.77"/>
    </edge>
    <edge id=":2904937024_4" function="internal">
        <lane id=":2904937024_4_0" index="0" allow="pedestrian" speed="5.12" length="6.13" width="2.00" shape="995.29,1982.81 998.91,1983.90 1000.53,1985.60"/>
    </edge>
    <edge id=":2904937024_5" function="internal">
        <lane id=":2904937024_5_0" index="0" disallow="pedestrian tram rail_urban rail rail_electric rail_fast ship" speed="8.33" length="0.21" shape="996.04,1985.30 996.24,1985.23"/>
    </edge>
    <edge id=":2904937024_7" function="internal">
        <lane id=":2904937024_7_0" index="0" allow="pedestrian" speed="5.12" length="6.13" width="2.00" shape="1000.53,1985.60 1000.13,1987.92 997.73,1990.85"/>
    </edge>
    <edge id=":2904937024_w0" function="walkingarea">
        <lane id=":2904937024_w0_0" index="0" allow="pedestrian" speed="1.00" length="0.38" width="2.00" shape="997.44,1989.89 998.02,1991.80 998.41,1991.68 997.77,1989.78"/>
    </edge>
    <edge id=":2904937024_w1" function="walkingarea">
        <lane id=":2904937024_w1_0" index="0" allow="pedestrian" speed="1.00" length="0.13" width="2.00" shape="995.73,1983.72 995.09,1981.82 994.99,1981.85 995.58,1983.77"/>
    </edge>
    <edge id=":2962877945_0" function="internal">
        <lane id=":2962877945_0_0" index="0" allow="bicycle" speed="2.04" length="1.46" width="1.00" shape="904.99,2073.92 905.21,2073.53 905.45,2073.39 905.71,2073.50 905.98,2073.86"/>
    </edge>
    <edge id=":2962877945_1" function="internal">
        <lane id=":2962877945_1_0" index="0" allow="bicycle" speed="2.04" length="1.46" width="1.00" shape="907.02,2068.62 906.64,2068.87 906.37,2068.88 906.18,2068.67 906.10,2068.23"/>
    </edge>
    <edge id=":3050661412_0" function="internal">
        <lane id=":3050661412_0_0" index="0" allow="pedestrian delivery bicycle" speed="3.65" length="4.67" shape="794.86,2010.67 795.38,2009.33 796.08,2008.77 796.95,2008.99 797.98,2009.99"/>
    </edge>
    <edge id=":3100813935_0" function="internal">
        <lane id=":3100813935_0_0" index="0" allow="pedestrian delivery bicycle" speed="3.65" length="4.67" shape="747.82,2255.42 747.05,2256.63 746.25,2257.05 745.45,2256.67 744.62,2255.48"/>
    </edge>
    <edge id=":3100813936_0" function="internal">
        <lane id=":3100813936_0_0" index="0" allow="pedestrian delivery bicycle" speed="3.65" length="4.67" shape="742.51,2223.56 741.32,2222.73 740.94,2221.93 741.36,2221.14 742.57,2220.36"/>
    </edge>
    <edge id=":3122562430_0" function="internal">
        <lane id=":3122562430_0_0" index="0" allow="pedestrian delivery bicycle" speed="3.65" length="4.67" shape="748.12,2003.13 746.79,2002.59 746.23,2001.88 746.46,2001.02 747.48,1999.99"/>
    </edge>
    <edge id=":3122562529_0" function="internal">
        <lane id=":3122562529_0_0" index="0" allow="pedestrian delivery bicycle" speed="3.65" length="4.67" shape="769.75,2003.58 771.09,2004.10 771.65,2004.80 771.43,2005.67 770.43,2006.70"/>
    </edge>
    <edge id=":3136710229_0" function="internal">
        <lane id=":3136710229_0_0" index="0" allow="delivery bicycle" speed="5.56" length="5.65" shape="826.04,2122.97 825.16,2121.46 825.16,2120.38 826.02,2119.73 827.75,2119.50"/>
    </edge>
    <edge id=":3136710229_1" function="internal">