<?xml version="1.0" encoding="UTF-8"?>

<!-- generated on Thu Nov 28 12:35:38 2019 by Eclipse SUMO netconvert Version 1.0.1
<configuration xmlns:xsi="http://www.w3.org/2001/XMLSchema-instance" xsi:noNamespaceSchemaLocation="http://sumo.dlr.de/xsd/netconvertConfiguration.xsd">

    <input>
        <sumo-net-file value="mf_base.net.xml"/>
    </input>

    <output>
        <plain-output-prefix value="plain"/>
    </output>

    <processing>
        <offset.disable-normalization value="true"/>
        <lefthand value="false"/>
    </processing>

    <junctions>
        <no-turnarounds value="true"/>
        <junctions.corner-detail value="5"/>
        <junctions.limit-turn-speed value="5.5"/>
        <rectangular-lane-cut value="false"/>
    </junctions>

    <pedestrian>
        <walkingareas value="false"/>
    </pedestrian>

</configuration>
-->

<connections version="1.0" xmlns:xsi="http://www.w3.org/2001/XMLSchema-instance" xsi:noNamespaceSchemaLocation="http://sumo.dlr.de/xsd/connections_file.xsd">
    <connection from="-101220845" to="101220845" fromLane="0" toLane="0"/>

    <connection from="-155546685" to="155546685" fromLane="0" toLane="0"/>
    <connection from="-155546685" to="155546685" fromLane="1" toLane="1"/>

    <connection from="-155546690" to="155546690" fromLane="0" toLane="0"/>

    <connection from="-155546691" to="86414061" fromLane="0" toLane="0"/>
    <connection from="-155546691" to="-155546690" fromLane="0" toLane="0"/>
    <connection from="-155546691" to="-155546692" fromLane="0" toLane="0"/>
    <connection from="-155546691" to="155546691" fromLane="0" toLane="0"/>
    <connection from="-155546691" to="86414061" fromLane="1" toLane="1"/>
    <connection from="-155546691" to="-155546690" fromLane="1" toLane="1"/>
    <connection from="-155546691" to="-155546692" fromLane="1" toLane="1"/>
    <connection from="-155546691" to="155546691" fromLane="1" toLane="1"/>

    <connection from="-155546692" to="5785606" fromLane="0" toLane="0"/>
    <connection from="-155546692" to="-421145355#1" fromLane="0" toLane="0"/>
    <connection from="-155546692" to="155546692" fromLane="0" toLane="0"/>
    <connection from="-155546692" to="5785606" fromLane="1" toLane="1"/>
    <connection from="-155546692" to="-421145355#1" fromLane="1" toLane="1"/>

    <connection from="-155548874" to="-371746586#4" fromLane="0" toLane="0"/>
    <connection from="-155548874" to="371076643#0" fromLane="0" toLane="0"/>
    <connection from="-155548874" to="351235033" fromLane="1" toLane="1"/>
    <connection from="-155548874" to="-33487023#5" fromLane="1" toLane="0"/>
    <connection from="-155548874" to="-157964859#0" fromLane="1" toLane="0"/>
    <connection from="-155548874" to="288092849#0" fromLane="1" toLane="0"/>
    <connection from="-155548874" to="151542345#1" fromLane="1" toLane="2"/>
    <connection from="-155548874" to="155548874" fromLane="1" toLane="2"/>

    <connection from="-155548876" to="-86414061" fromLane="0" toLane="0"/>
    <connection from="-155548876" to="-155546685" fromLane="0" toLane="0"/>
    <connection from="-155548876" to="86414054#0" fromLane="0" toLane="0"/>
    <connection from="-155548876" to="155548876" fromLane="0" toLane="0"/>
    <connection from="-155548876" to="-86414061" fromLane="1" toLane="1"/>
    <connection from="-155548876" to="-155546685" fromLane="1" toLane="1"/>
    <connection from="-155548876" to="86414054#0" fromLane="1" toLane="1"/>

    <connection from="-157964859#0" to="-33487027" fromLane="0" toLane="0"/>

    <connection from="-158399739#0" to="158399779#1" fromLane="0" toLane="0"/>
    <connection from="-158399739#0" to="-158399779#0" fromLane="0" toLane="0"/>
    <connection from="-158399739#0" to="158399739#0" fromLane="0" toLane="0"/>
    <connection from="-158399739#0" to="158399779#1" fromLane="1" toLane="1"/>
    <connection from="-158399739#0" to="-158399779#0" fromLane="1" toLane="1"/>

    <connection from="-158399739#1" to="-158399739#0" fromLane="0" toLane="0"/>
    <connection from="-158399739#1" to="-41726075" fromLane="0" toLane="0"/>
    <connection from="-158399739#1" to="158399739#1" fromLane="0" toLane="0"/>
    <connection from="-158399739#1" to="-158399739#0" fromLane="1" toLane="1"/>

    <connection from="-158399779#0" to="31344484" fromLane="0" toLane="0"/>
    <connection from="-158399779#0" to="-86414054#1" fromLane="0" toLane="0"/>
    <connection from="-158399779#0" to="-33487028#4" fromLane="0" toLane="0"/>
    <connection from="-158399779#0" to="158399779#0" fromLane="0" toLane="0"/>
    <connection from="-158399779#0" to="31344484" fromLane="1" toLane="1"/>
    <connection from="-158399779#0" to="-86414054#1" fromLane="1" toLane="1"/>
    <connection from="-158399779#0" to="-33487028#4" fromLane="1" toLane="1"/>

    <connection from="-158399779#1" to="-158399779#0" fromLane="0" toLane="0"/>
    <connection from="-158399779#1" to="158399739#0" fromLane="0" toLane="0"/>
    <connection from="-158399779#1" to="158399779#1" fromLane="0" toLane="0"/>
    <connection from="-158399779#1" to="-158399779#0" fromLane="1" toLane="1"/>
    <connection from="-158399779#1" to="158399739#0" fromLane="1" toLane="1"/>

    <connection from="-160565852" to="-158399739#1" fromLane="0" toLane="0"/>
    <connection from="-160565852" to="-254945243" fromLane="0" toLane="0"/>
    <connection from="-160565852" to="-4662541#2" fromLane="0" toLane="0"/>
    <connection from="-160565852" to="160565852" fromLane="0" toLane="0"/>
    <connection from="-160565852" to="-158399739#1" fromLane="1" toLane="1"/>
    <connection from="-160565852" to="-4662541#2" fromLane="1" toLane="1"/>

    <connection from="-243544432" to="-244544045#3" fromLane="0" toLane="0"/>

    <connection from="-244544045#2" to="288092849#2" fromLane="0" toLane="0"/>
    <connection from="-244544045#2" to="151542345#2" fromLane="0" toLane="1"/>
    <connection from="-244544045#2" to="-288092849#1" fromLane="0" toLane="0"/>
    <connection from="-244544045#2" to="244544045#2" fromLane="0" toLane="0"/>

    <connection from="-244544045#3" to="-244544045#2" fromLane="0" toLane="0"/>
    <connection from="-244544045#3" to="-244544046" fromLane="0" toLane="0"/>
    <connection from="-244544045#3" to="244544045#3" fromLane="0" toLane="0"/>

    <connection from="-244544046" to="-243544432" fromLane="0" toLane="0"/>

    <connection from="-254945243" to="33487028#2" fromLane="0" toLane="0"/>
    <connection from="-254945243" to="-33487028#1" fromLane="0" toLane="0"/>

    <connection from="-288092849#0" to="151542345#1" fromLane="0" toLane="0"/>
    <connection from="-288092849#0" to="155548874" fromLane="0" toLane="1"/>
    <connection from="-288092849#0" to="155548874" fromLane="0" toLane="2"/>
    <connection from="-288092849#0" to="351235033" fromLane="0" toLane="2"/>
    <connection from="-288092849#0" to="-33487023#5" fromLane="0" toLane="0"/>
    <connection from="-288092849#0" to="-157964859#0" fromLane="0" toLane="0"/>
    <connection from="-288092849#0" to="288092849#0" fromLane="0" toLane="0"/>

    <connection from="-288092849#1" to="-288092849#0" fromLane="0" toLane="0"/>
    <connection from="-288092849#1" to="288092849#1" fromLane="0" toLane="0"/>

    <connection from="-288092849#2" to="151542345#2" fromLane="0" toLane="0"/>
    <connection from="-288092849#2" to="-288092849#1" fromLane="0" toLane="0"/>
    <connection from="-288092849#2" to="244544045#2" fromLane="0" toLane="0"/>
    <connection from="-288092849#2" to="288092849#2" fromLane="0" toLane="0"/>

    <connection from="-305457071" to="480932499" fromLane="0" toLane="0"/>
    <connection from="-305457071" to="4662591#2" fromLane="0" toLane="0"/>

    <connection from="-308384337#0" to="-371746586#2" fromLane="0" toLane="0" uncontrolled="1"/>
    <connection from="-308384337#0" to="157964860#0" fromLane="1" toLane="0" uncontrolled="1"/>
    <connection from="-308384337#0" to="332176203" fromLane="1" toLane="2" uncontrolled="1"/>

    <connection from="-308384337#1" to="308384337#1" fromLane="1" toLane="1"/>
    <connection from="-308384337#1" to="-308384337#2" fromLane="1" toLane="1"/>
    <connection from="-308384337#1" to="-308384337#0" fromLane="1" toLane="1"/>

    <connection from="-308384337#2" to="-308384337#1" fromLane="1" toLane="1"/>
    <connection from="-308384337#2" to="308384337#2" fromLane="1" toLane="1"/>

    <connection from="-308384344#0" to="-371746586#0" fromLane="0" toLane="0"/>

    <connection from="-308384344#1" to="308384352" fromLane="0" toLane="0"/>
    <connection from="-308384344#1" to="-308384344#0" fromLane="0" toLane="0"/>

    <connection from="-31344484" to="-86414054#1" fromLane="0" toLane="0"/>
    <connection from="-31344484" to="-33487028#4" fromLane="0" toLane="0"/>
    <connection from="-31344484" to="158399779#0" fromLane="0" toLane="0"/>
    <connection from="-31344484" to="31344484" fromLane="0" toLane="0"/>
    <connection from="-31344484" to="-86414054#1" fromLane="1" toLane="1"/>
    <connection from="-31344484" to="-33487028#4" fromLane="1" toLane="1"/>
    <connection from="-31344484" to="158399779#0" fromLane="1" toLane="1"/>

    <connection from="-332176204" to="-5785422" fromLane="0" toLane="0"/>
    <connection from="-332176204" to="332176204" fromLane="0" toLane="0"/>
    <connection from="-332176204" to="-5785422" fromLane="1" toLane="1"/>

    <connection from="-332176207" to="332176200" fromLane="0" toLane="0"/>
    <connection from="-332176207" to="332176207" fromLane="0" toLane="0"/>

    <connection from="-332176208#1" to="371076643#0" fromLane="0" toLane="0"/>
    <connection from="-332176208#1" to="155548874" fromLane="0" toLane="0"/>

    <connection from="-33487023#0" to="93607081" fromLane="0" toLane="0"/>
    <connection from="-33487023#0" to="-101220845" fromLane="0" toLane="0"/>
    <connection from="-33487023#0" to="33487026#1" fromLane="0" toLane="0"/>
    <connection from="-33487023#0" to="33487023#0" fromLane="0" toLane="0"/>

    <connection from="-33487023#1" to="-33487023#0" fromLane="0" toLane="0"/>
    <connection from="-33487023#1" to="33487023#1" fromLane="0" toLane="0"/>

    <connection from="-33487023#4" to="157964860#0" fromLane="0" toLane="0" uncontrolled="1"/>
    <connection from="-33487023#4" to="-33487030#3" fromLane="0" toLane="0" uncontrolled="1"/>
    <connection from="-33487023#4" to="332176203" fromLane="0" toLane="1" uncontrolled="1"/>
    <connection from="-33487023#4" to="-33487023#1" fromLane="0" toLane="0" uncontrolled="1"/>
    <connection from="-33487023#4" to="308384337#0" fromLane="0" toLane="1" uncontrolled="1"/>
    <connection from="-33487023#4" to="33487023#4" fromLane="0" toLane="0" uncontrolled="1"/>

    <connection from="-33487023#5" to="-33487023#4" fromLane="0" toLane="0"/>
    <connection from="-33487023#5" to="33487023#5" fromLane="0" toLane="0"/>

    <connection from="-33487025#0" to="33487025#0" fromLane="0" toLane="0"/>

    <connection from="-33487025#1" to="151542344#2" fromLane="0" toLane="0"/>
    <connection from="-33487025#1" to="-33487025#0" fromLane="0" toLane="0"/>
    <connection from="-33487025#1" to="4662541#2" fromLane="0" toLane="1"/>

    <connection from="-33487026#1" to="33487023#0" fromLane="0" toLane="0"/>
    <connection from="-33487026#1" to="93607081" fromLane="0" toLane="1"/>
    <connection from="-33487026#1" to="-101220845" fromLane="0" toLane="0"/>
    <connection from="-33487026#1" to="33487026#1" fromLane="0" toLane="0"/>

    <connection from="-33487026#2" to="-33487026#1" fromLane="0" toLane="0"/>
    <connection from="-33487026#2" to="4662591#0" fromLane="0" toLane="0"/>
    <connection from="-33487026#2" to="33487026#2" fromLane="0" toLane="0"/>

    <connection from="-33487027" to="4662588" fromLane="0" toLane="0"/>
    <connection from="-33487027" to="-80737020#2" fromLane="0" toLane="0"/>
    <connection from="-33487027" to="533381127" fromLane="0" toLane="0"/>
    <connection from="-33487027" to="33487027" fromLane="0" toLane="0"/>

    <connection from="-33487028#1" to="24039836#1" fromLane="0" toLane="0"/>
    <connection from="-33487028#1" to="-155548874" fromLane="0" toLane="0"/>
    <connection from="-33487028#1" to="214785685#3" fromLane="0" toLane="0"/>
    <connection from="-33487028#1" to="33487028#1" fromLane="0" toLane="0"/>
    <connection from="-33487028#1" to="551303739#2" fromLane="1" toLane="0"/>
    <connection from="-33487028#1" to="-155548874" fromLane="2" toLane="1"/>
    <connection from="-33487028#1" to="33487028#1" fromLane="2" toLane="1"/>

    <connection from="-33487028#2" to="-33487028#1" fromLane="0" toLane="0"/>
    <connection from="-33487028#2" to="33487028#2" fromLane="0" toLane="0"/>
    <connection from="-33487028#2" to="-33487028#1" fromLane="1" toLane="1"/>
    <connection from="-33487028#2" to="-33487028#1" fromLane="1" toLane="2"/>
    <connection from="-33487028#2" to="33487028#2" fromLane="1" toLane="1"/>

    <connection from="-33487028#3" to="-33487028#2" fromLane="0" toLane="0"/>
    <connection from="-33487028#3" to="-33487028#2" fromLane="1" toLane="1"/>
    <connection from="-33487028#3" to="33487028#3" fromLane="1" toLane="1"/>

    <connection from="-33487028#4" to="-33487028#3" fromLane="0" toLane="0"/>
    <connection from="-33487028#4" to="33487028#4" fromLane="0" toLane="0"/>
    <connection from="-33487028#4" to="-33487028#3" fromLane="1" toLane="1"/>
    <connection from="-33487028#4" to="33487028#4" fromLane="1" toLane="1"/>

    <connection from="-33487030#0" to="-33487025#1" fromLane="0" toLane="0"/>

    <connection from="-33487030#2" to="33487030#2" fromLane="0" toLane="0"/>

    <connection from="-33487030#3" to="-33487030#2" fromLane="0" toLane="0"/>
    <connection from="-33487030#3" to="33487030#3" fromLane="0" toLane="0"/>

    <connection from="-364876164" to="371076643#1" fromLane="0" toLane="0"/>
    <connection from="-364876164" to="-332176208#1" fromLane="0" toLane="0"/>

    <connection from="-371746586#0" to="-210310284" fromLane="0" toLane="0"/>

    <connection from="-371746586#1" to="-371746586#0" fromLane="0" toLane="0"/>

    <connection from="-371746586#2" to="-371746586#1" fromLane="0" toLane="0"/>

    <connection from="-371746586#4" to="308384337#0" fromLane="0" toLane="0" uncontrolled="1"/>

    <connection from="-371746586#9" to="155548874" fromLane="0" toLane="0"/>

    <connection from="-41726075" to="33487028#4" fromLane="0" toLane="0"/>
    <connection from="-41726075" to="-33487028#3" fromLane="0" toLane="0"/>

    <connection from="-421145355#0" to="421145355#0" fromLane="0" toLane="0"/>

    <connection from="-421145355#1" to="24039836#10" fromLane="0" toLane="0"/>
    <connection from="-421145355#1" to="421145355#1" fromLane="0" toLane="0"/>
    <connection from="-421145355#1" to="-421145355#0" fromLane="1" toLane="0"/>

    <connection from="-4662541#2" to="4662541#2" fromLane="0" toLane="0"/>
    <connection from="-4662541#2" to="33487025#1" fromLane="1" toLane="0"/>
    <connection from="-4662541#2" to="151542344#2" fromLane="1" toLane="0"/>
    <connection from="-4662541#2" to="-33487025#0" fromLane="1" toLane="0"/>
    <connection from="-4662541#2" to="4662541#2" fromLane="1" toLane="1"/>

    <connection from="-480932499" to="4662591#2" fromLane="0" toLane="0"/>
    <connection from="-480932499" to="305457071" fromLane="0" toLane="0"/>

    <connection from="-533368700" to="533368701" fromLane="0" toLane="0"/>
    <connection from="-533368700" to="80737020#2" fromLane="0" toLane="0"/>
    <connection from="-533368700" to="-80737020#0" fromLane="0" toLane="0"/>

    <connection from="-533368701" to="80737020#2" fromLane="0" toLane="0"/>
    <connection from="-533368701" to="-80737020#0" fromLane="0" toLane="0"/>
    <connection from="-533368701" to="533368700" fromLane="0" toLane="0"/>

    <connection from="-533381127" to="33487027" fromLane="0" toLane="0"/>
    <connection from="-533381127" to="4662588" fromLane="0" toLane="0"/>
    <connection from="-533381127" to="-80737020#2" fromLane="0" toLane="0"/>

    <connection from="-5785422" to="-31344484" fromLane="0" toLane="0"/>
    <connection from="-5785422" to="-86414058" fromLane="0" toLane="0"/>
    <connection from="-5785422" to="5785422" fromLane="0" toLane="0"/>
    <connection from="-5785422" to="-31344484" fromLane="1" toLane="1"/>
    <connection from="-5785422" to="-86414058" fromLane="1" toLane="1"/>
    <connection from="-5785422" to="5785422" fromLane="1" toLane="1"/>

    <connection from="-5785606" to="-421145355#1" fromLane="0" toLane="0"/>
    <connection from="-5785606" to="155546692" fromLane="0" toLane="0"/>
    <connection from="-5785606" to="5785606" fromLane="0" toLane="0"/>
    <connection from="-5785606" to="-421145355#1" fromLane="1" toLane="1"/>
    <connection from="-5785606" to="155546692" fromLane="1" toLane="1"/>
    <connection from="-5785606" to="5785606" fromLane="1" toLane="1"/>

    <connection from="-80737020#0" to="80737020#0" fromLane="0" toLane="0"/>

    <connection from="-80737020#2" to="-80737020#0" fromLane="0" toLane="0"/>
    <connection from="-80737020#2" to="533368700" fromLane="0" toLane="0"/>
    <connection from="-80737020#2" to="533368701" fromLane="0" toLane="0"/>
    <connection from="-80737020#2" to="80737020#2" fromLane="0" toLane="0"/>

    <connection from="-86414054#0" to="155548876" fromLane="0" toLane="0"/>
    <connection from="-86414054#0" to="-86414061" fromLane="0" toLane="0"/>
    <connection from="-86414054#0" to="-155546685" fromLane="0" toLane="0"/>
    <connection from="-86414054#0" to="86414054#0" fromLane="0" toLane="0"/>
    <connection from="-86414054#0" to="155548876" fromLane="1" toLane="1"/>
    <connection from="-86414054#0" to="-86414061" fromLane="1" toLane="1"/>
    <connection from="-86414054#0" to="-155546685" fromLane="1" toLane="1"/>

    <connection from="-86414054#1" to="-86414054#0" fromLane="0" toLane="0"/>
    <connection from="-86414054#1" to="-86414054#0" fromLane="1" toLane="1"/>

    <connection from="-86414058" to="86414058" fromLane="0" toLane="0"/>
    <connection from="-86414058" to="86414058" fromLane="1" toLane="0"/>

    <connection from="-86414061" to="-155546690" fromLane="0" toLane="0"/>
    <connection from="-86414061" to="-155546692" fromLane="0" toLane="0"/>
    <connection from="-86414061" to="155546691" fromLane="0" toLane="0"/>
    <connection from="-86414061" to="86414061" fromLane="0" toLane="0"/>
    <connection from="-86414061" to="-155546690" fromLane="1" toLane="1"/>
    <connection from="-86414061" to="-155546692" fromLane="1" toLane="1"/>
    <connection from="-86414061" to="155546691" fromLane="1" toLane="1"/>

    <connection from="101220845" to="33487026#1" fromLane="0" toLane="0"/>
    <connection from="101220845" to="33487023#0" fromLane="0" toLane="0"/>
    <connection from="101220845" to="93607081" fromLane="0" toLane="1"/>
    <connection from="101220845" to="-101220845" fromLane="0" toLane="0"/>

    <connection from="105469274#0" to="258747528#0" fromLane="0" toLane="0"/>

    <connection from="127977585" to="-101220845" fromLane="0" toLane="0"/>
    <connection from="127977585" to="33487026#1" fromLane="0" toLane="0"/>
    <connection from="127977585" to="33487023#0" fromLane="1" toLane="0"/>
    <connection from="127977585" to="93607081" fromLane="1" toLane="1"/>
    <connection from="127977585" to="93607081" fromLane="2" toLane="2"/>

    <connection from="151542344#1" to="-33487025#0" fromLane="0" toLane="0"/>
    <connection from="151542344#1" to="4662541#2" fromLane="0" toLane="1"/>
    <connection from="151542344#1" to="33487025#1" fromLane="1" toLane="0"/>
    <connection from="151542344#1" to="151542344#2" fromLane="1" toLane="1"/>

    <connection from="151542344#2" to="155548874" fromLane="0" toLane="1"/>
    <connection from="151542344#2" to="155548874" fromLane="0" toLane="2"/>
    <connection from="151542344#2" to="351235033" fromLane="0" toLane="1"/>
    <connection from="151542344#2" to="-33487023#5" fromLane="0" toLane="0"/>
    <connection from="151542344#2" to="-157964859#0" fromLane="1" toLane="0"/>
    <connection from="151542344#2" to="288092849#0" fromLane="1" toLane="0"/>

    <connection from="151542345#1" to="-288092849#1" fromLane="0" toLane="0"/>
    <connection from="151542345#1" to="244544045#2" fromLane="0" toLane="0"/>
    <connection from="151542345#1" to="288092849#2" fromLane="1" toLane="0"/>
    <connection from="151542345#1" to="151542345#2" fromLane="1" toLane="1"/>
    <connection from="151542345#1" to="151542345#2" fromLane="2" toLane="2"/>

    <connection from="155546685" to="86414054#0" fromLane="0" toLane="0"/>
    <connection from="155546685" to="155548876" fromLane="0" toLane="0"/>
    <connection from="155546685" to="-86414061" fromLane="0" toLane="0"/>
    <connection from="155546685" to="-155546685" fromLane="0" toLane="0"/>
    <connection from="155546685" to="86414054#0" fromLane="1" toLane="1"/>
    <connection from="155546685" to="155548876" fromLane="1" toLane="1"/>
    <connection from="155546685" to="-86414061" fromLane="1" toLane="1"/>
    <connection from="155546685" to="-155546685" fromLane="1" toLane="1"/>

    <connection from="155546690" to="-155546692" fromLane="0" toLane="0"/>
    <connection from="155546690" to="155546691" fromLane="0" toLane="0"/>
    <connection from="155546690" to="86414061" fromLane="0" toLane="0"/>
    <connection from="155546690" to="-155546690" fromLane="0" toLane="0"/>
    <connection from="155546690" to="-155546692" fromLane="1" toLane="1"/>
    <connection from="155546690" to="155546691" fromLane="1" toLane="1"/>
    <connection from="155546690" to="86414061" fromLane="1" toLane="1"/>

    <connection from="155546691" to="-155546691" fromLane="0" toLane="0"/>
    <connection from="155546691" to="-155546691" fromLane="1" toLane="1"/>

    <connection from="155546692" to="155546691" fromLane="0" toLane="0"/>
    <connection from="155546692" to="86414061" fromLane="0" toLane="0"/>
    <connection from="155546692" to="-155546690" fromLane="0" toLane="0"/>
    <connection from="155546692" to="-155546692" fromLane="0" toLane="0"/>
    <connection from="155546692" to="155546691" fromLane="1" toLane="1"/>
    <connection from="155546692" to="86414061" fromLane="1" toLane="1"/>
    <connection from="155546692" to="-155546690" fromLane="1" toLane="1"/>

    <connection from="155548874" to="214785685#3" fromLane="0" toLane="0"/>
    <connection from="155548874" to="33487028#1" fromLane="0" toLane="0"/>
    <connection from="155548874" to="24039836#1" fromLane="0" toLane="0"/>
    <connection from="155548874" to="-155548874" fromLane="0" toLane="0"/>
    <connection from="155548874" to="-33487025#1" fromLane="1" toLane="0"/>
    <connection from="155548874" to="551303739#2" fromLane="1" toLane="0"/>
    <connection from="155548874" to="-33487025#1" fromLane="2" toLane="0"/>
    <connection from="155548874" to="33487028#1" fromLane="2" toLane="1"/>
    <connection from="155548874" to="551303739#2" fromLane="2" toLane="0"/>

    <connection from="155548876" to="-332176204" fromLane="0" toLane="0"/>
    <connection from="155548876" to="-155548876" fromLane="0" toLane="0"/>
    <connection from="155548876" to="-332176204" fromLane="1" toLane="1"/>

    <connection from="157964859#0" to="288092849#0" fromLane="0" toLane="0"/>
    <connection from="157964859#0" to="151542345#1" fromLane="0" toLane="0"/>
    <connection from="157964859#0" to="155548874" fromLane="0" toLane="1"/>
    <connection from="157964859#0" to="155548874" fromLane="0" toLane="2"/>
    <connection from="157964859#0" to="351235033" fromLane="0" toLane="2"/>
    <connection from="157964859#0" to="-33487023#5" fromLane="0" toLane="0"/>

    <connection from="157964860#0" to="-33487023#5" fromLane="0" toLane="0"/>
    <connection from="157964860#0" to="-157964859#0" fromLane="0" toLane="0"/>
    <connection from="157964860#0" to="288092849#0" fromLane="1" toLane="0"/>
    <connection from="157964860#0" to="151542345#1" fromLane="1" toLane="1"/>
    <connection from="157964860#0" to="151542345#1" fromLane="2" toLane="2"/>
    <connection from="157964860#0" to="155548874" fromLane="2" toLane="2"/>

    <connection from="158399739#0" to="-41726075" fromLane="0" toLane="0"/>
    <connection from="158399739#0" to="158399739#1" fromLane="0" toLane="0"/>
    <connection from="158399739#0" to="-158399739#0" fromLane="0" toLane="0"/>
    <connection from="158399739#0" to="158399739#1" fromLane="1" toLane="1"/>

    <connection from="158399739#1" to="-254945243" fromLane="0" toLane="0"/>
    <connection from="158399739#1" to="-4662541#2" fromLane="0" toLane="0"/>
    <connection from="158399739#1" to="160565852" fromLane="0" toLane="0"/>
    <connection from="158399739#1" to="-158399739#1" fromLane="0" toLane="0"/>
    <connection from="158399739#1" to="-4662541#2" fromLane="1" toLane="1"/>
    <connection from="158399739#1" to="160565852" fromLane="1" toLane="1"/>

    <connection from="158399779#0" to="-158399779#0" fromLane="0" toLane="0"/>
    <connection from="158399779#0" to="158399739#0" fromLane="1" toLane="1"/>
    <connection from="158399779#0" to="158399779#1" fromLane="1" toLane="1"/>

    <connection from="158399779#1" to="-158399779#1" fromLane="0" toLane="0"/>

    <connection from="160565852" to="-160565852" fromLane="0" toLane="0"/>

    <connection from="193703018#2" to="193703018#3" fromLane="0" toLane="0"/>
    <connection from="193703018#2" to="378298921#1" fromLane="0" toLane="0"/>

    <connection from="193703018#3" to="105469274#0" fromLane="0" toLane="0"/>
    <connection from="193703018#3" to="258747556" fromLane="0" toLane="0"/>

    <connection from="193703019#0" to="193703018#2" fromLane="0" toLane="0"/>
    <connection from="193703019#0" to="378298925#12" fromLane="0" toLane="0"/>

    <connection from="196055608#0" to="155546685" fromLane="0" toLane="0"/>
    <connection from="196055608#0" to="24039836#4" fromLane="0" toLane="0"/>

    <connection from="196055609" to="-155546691" fromLane="0" toLane="0"/>

    <connection from="214785685#3" to="151542344#2" fromLane="0" toLane="1"/>

    <connection from="24039835#1" to="193703018#2" fromLane="0" toLane="0"/>
    <connection from="24039835#1" to="378298925#12" fromLane="0" toLane="0"/>

    <connection from="24039836#1" to="155546685" fromLane="0" toLane="0"/>
    <connection from="24039836#1" to="24039836#4" fromLane="0" toLane="0"/>

    <connection from="24039836#4" to="24039836#5" fromLane="0" toLane="0"/>

    <connection from="24039836#5" to="24039836#6" fromLane="0" toLane="0"/>

    <connection from="24039836#6" to="24039836#8" fromLane="0" toLane="0"/>
    <connection from="24039836#6" to="24039835#1" fromLane="0" toLane="0"/>

    <connection from="24039836#8" to="196055609" fromLane="0" toLane="0"/>
    <connection from="24039836#8" to="24039836#9" fromLane="0" toLane="0"/>

    <connection from="24039836#9" to="421145355#1" fromLane="0" toLane="0"/>
    <connection from="24039836#9" to="24039836#10" fromLane="0" toLane="0"/>

    <connection from="243544432" to="244544046" fromLane="0" toLane="0"/>

    <connection from="244544045#2" to="-244544046" fromLane="0" toLane="0"/>
    <connection from="244544045#2" to="244544045#3" fromLane="0" toLane="0"/>
    <connection from="244544045#2" to="-244544045#2" fromLane="0" toLane="0"/>

    <connection from="244544045#3" to="243544432" fromLane="0" toLane="0"/>

    <connection from="244544046" to="244544045#3" fromLane="0" toLane="0"/>
    <connection from="244544046" to="-244544045#2" fromLane="0" toLane="0"/>
    <connection from="244544046" to="-244544046" fromLane="0" toLane="0"/>

    <connection from="258139178" to="gneE21" fromLane="0" toLane="0"/>

    <connection from="258747528#0" to="258747528#1" fromLane="0" toLane="0"/>
    <connection from="258747528#0" to="267059263" fromLane="0" toLane="0"/>

    <connection from="258747556" to="258139178" fromLane="0" toLane="0"/>

    <connection from="265463850#0" to="-33487023#1" fromLane="0" toLane="0" uncontrolled="1"/>
    <connection from="265463850#0" to="308384337#0" fromLane="0" toLane="1" uncontrolled="1"/>
    <connection from="265463850#0" to="33487023#4" fromLane="0" toLane="0" uncontrolled="1"/>
    <connection from="265463850#0" to="157964860#0" fromLane="1" toLane="1" uncontrolled="1"/>
    <connection from="265463850#0" to="-33487030#3" fromLane="2" toLane="0" uncontrolled="1"/>

    <connection from="267059263" to="-33487030#3" fromLane="0" toLane="0" uncontrolled="1"/>
    <connection from="267059263" to="332176203" fromLane="0" toLane="0" uncontrolled="1"/>
    <connection from="267059263" to="-33487023#1" fromLane="0" toLane="0" uncontrolled="1"/>
    <connection from="267059263" to="308384337#0" fromLane="0" toLane="1" uncontrolled="1"/>
    <connection from="267059263" to="33487023#4" fromLane="0" toLane="0" uncontrolled="1"/>
    <connection from="267059263" to="157964860#0" fromLane="0" toLane="2" uncontrolled="1"/>

    <connection from="288092849#0" to="288092849#1" fromLane="0" toLane="0"/>
    <connection from="288092849#0" to="-288092849#0" fromLane="0" toLane="0"/>

    <connection from="288092849#1" to="244544045#2" fromLane="0" toLane="0"/>
    <connection from="288092849#1" to="288092849#2" fromLane="0" toLane="0"/>
    <connection from="288092849#1" to="151542345#2" fromLane="0" toLane="1"/>
    <connection from="288092849#1" to="-288092849#1" fromLane="0" toLane="0"/>

    <connection from="288092849#2" to="-288092849#2" fromLane="0" toLane="0"/>

    <connection from="305457071" to="-305457071" fromLane="0" toLane="0"/>

    <connection from="308384337#0" to="308384337#1" fromLane="0" toLane="0"/>
    <connection from="308384337#0" to="-308384337#0" fromLane="0" toLane="0"/>
    <connection from="308384337#0" to="308384337#1" fromLane="1" toLane="1"/>
    <connection from="308384337#0" to="-308384337#2" fromLane="1" toLane="1"/>