<?xml version="1.0" encoding="UTF-8"?>

<!-- generated on Tue Nov 26 16:11:13 2019 by Eclipse SUMO duarouter Version v1_3_1+0207-e5522cc340
<configuration xmlns:xsi="http://www.w3.org/2001/XMLSchema-instance" xsi:noNamespaceSchemaLocation="http://sumo.dlr.de/xsd/duarouterConfiguration.xsd">

    <input>
        <net-file value="mf_base_new2.net.xml"/>
        <route-files value="trips.trips.xml"/>
    </input>

    <output>
        <output-file value="mf_base_new2.rou.xml"/>
        <alternatives-output value="mf_base_new2.rou.alt.xml"/>
    </output>

    <time>
        <begin value="0.0"/>
        <end value="500.0"/>
    </time>

    <report>
        <no-warnings value="true"/>
        <ignore-errors value="true"/>
        <no-step-log value="true"/>
    </report>

</configuration>
-->

<routes xmlns:xsi="http://www.w3.org/2001/XMLSchema-instance" xsi:noNamespaceSchemaLocation="http://sumo.dlr.de/xsd/routes_file.xsd">
    <person id="2" depart="2.00">
        <walk edges="24039836#8 24039836#6 24039836#5 24039836#4 24039836#1 -33487028#1 -254945243 158399739#1"/>
    </person>
    <person id="3" depart="3.00">
        <walk edges="158399779#1 -158399739#0 -158399739#1 -254945243"/>
    </person>
    <person id="4" depart="4.00">
        <walk edges="5785422 31344484 33487028#4 -41726075 158399739#1 4662541#2 214785685#4"/>
    </person>
    <person id="6" depart="6.00">
        <walk edges="-41726075 -33487028#4 -31344484 -5785422"/>
    </person>
    <person id="8" depart="8.00">
        <walk edges="332176204 5785422 -31344484 -33487028#4 -33487028#3 -33487028#2 -33487028#1 24039836#1 24039836#4 gneE21 258139178 258747556 105469274#0 gneE22 -155548874"/>
    </person>
    <person id="9" depart="9.00">
        <walk edges="-33487028#2 -33487028#3 -41726075 -158399739#0"/>
    </person>
    <person id="11" depart="11.00">
        <walk edges="-533381127 371076643#0 gneE22 105469274#0 193703018#3 193703018#2 24039835#1 24039836#8 196055609 155546691"/>
    </person>
    <person id="13" depart="13.00">
        <walk edges="533368701 371076643#1 371076643#0 gneE22 105469274#0 193703018#3 193703018#2 24039835#1 24039836#8 196055609 155546691 -155546692"/>
    </person>
    <person id="14" depart="14.00">
        <walk edges="-4662541#2 -254945243 -33487028#1 24039836#1 155546685"/>
    </person>
    <person id="15" depart="15.00">
        <walk edges="371076643#3 371076643#1 371076643#0 gneE22 105469274#0 258747556 258139178 gneE21 24039836#4 155546685 86414054#0"/>
    </person>
    <person id="16" depart="16.00">
        <walk edges="4662541#2 160565852 -160565852"/>
    </person>
    <person id="17" depart="17.00">
        <walk edges="-332176204 155548876 155546685 24039836#4 gneE21 258139178 378298921#1"/>
    </person>
    <person id="19" depart="19.00">
        <walk edges="155546692 86414061 86414054#0 86414054#1 31344484"/>
    </person>
    <person id="22" depart="22.00">
        <walk edges="24039836#8 196055609 -155546691 86414061 155548876 -332176204"/>
    </person>
    <person id="23" depart="23.00">
        <walk edges="-155546690 -155546691 196055609 24039836#8 24039836#6 24039836#5 gneE21 258747525"/>
    </person>
    <person id="25" depart="25.00">
        <walk edges="160565852 -254945243 -33487028#1 24039836#1 24039836#4 24039836#5 24039836#6 24039835#1"/>
    </person>
    <person id="26" depart="26.00">
        <walk edges="-160565852 -254945243 -33487028#1 24039836#1 24039836#4 gneE21 258139178 258747556 105469274#0 gneE22 -332176208#1 -364876164"/>
    </person>
    <person id="27" depart="27.00">
        <walk edges="-158399739#1 -254945243 -33487028#1 24039836#1 24039836#4 24039836#5 24039836#6 24039836#8 24039836#9 421145355#1"/>
    </person>
    <person id="29" depart="29.00">
        <walk edges="378298921#1 258139178 gneE21 24039836#4 -155546685 -86414061"/>
    </person>
    <person id="32" depart="32.00">
        <walk edges="33487028#4 -41726075"/>
    </person>
    <person id="34" depart="34.00">
        <walk edges="533368700 371076643#1 371076643#0 gneE22 105469274#0 258747556 258139178 gneE21 24039836#4 24039836#1 -33487028#1 33487028#2"/>
    </person>
    <person id="35" depart="35.00">
        <walk edges="-158399779#1 158399739#0 158399739#1 -254945243 -33487028#1 24039836#1 24039836#4 gneE21 258139178 258747556"/>
    </person>
    <person id="36" depart="36.00">
        <walk edges="-158399739#1 -41726075 -33487028#4 86414054#1 86414054#0 86414061 155546691"/>
    </person>
    <person id="37" depart="37.00">
        <walk edges="-210310284 -371746586#0 -371746586#1"/>
    </person>
    <person id="41" depart="41.00">
        <walk edges="371076643#0 gneE22 105469274#0 258747556 258139178 gneE21"/>
    </person>
    <person id="42" depart="42.00">
        <walk edges="gneE22 371076643#0 -533381127"/>
    </person>
    <person id="43" depart="43.00">
        <walk edges="24039836#8 24039836#6 24039836#5 24039836#4 24039836#1 -33487028#1 33487028#2"/>
    </person>
    <person id="46" depart="46.00">
        <walk edges="-86414061 -155546685 24039836#1"/>
    </person>
    <person id="48" depart="48.00">
        <walk edges="214785685#3 33487028#1 33487028#2 33487028#3 -33487028#4 -31344484"/>
    </person>
    <person id="49" depart="49.00">
        <walk edges="193703018#2 378298921#1"/>
    </person>
    <person id="52" depart="52.00">
        <walk edges="158399739#0 158399779#0 86414054#1 86414054#0 86414061 155546692"/>
    </person>
    <person id="53" depart="53.00">
        <walk edges="214785685#4 4662541#2 158399739#1 158399739#0 -158399779#0"/>
    </person>
    <person id="55" depart="55.00">
        <walk edges="-155546685 24039836#4 gneE21 258139178 378298921#1"/>
    </person>
    <person id="56" depart="56.00">
        <walk edges="86414058 -31344484 -33487028#4 -33487028#3 -33487028#2 -33487028#1 24039836#1 24039836#4 gneE21"/>
    </person>
    <person id="57" depart="57.00">
        <walk edges="-155546692 -421145355#1"/>
    </person>
    <person id="59" depart="59.00">
        <walk edges="-533381127 371076643#0 gneE22 105469274#0 193703018#3 193703018#2 193703019#0"/>
    </person>
    <person id="60" depart="60.00">
        <walk edges="-155546690"/>
    </person>
    <person id="61" depart="61.00">
        <walk edges="24039836#10 -421145355#1 -155546692 -86414061 -86414054#0 -86414054#1 31344484 -86414058"/>
    </person>
    <person id="62" depart="62.00">
        <walk edges="196055609 24039836#8 24039836#6 24039836#5 24039836#4 24039836#1 -33487028#1 -254945243 -160565852"/>
    </person>
    <person id="64" depart="64.00">
        <walk edges="258747556 258139178 gneE21 24039836#4 24039836#1 -33487028#1"/>
    </person>
    <person id="65" depart="65.00">
        <walk edges="-254945243 -33487028#1 24039836#1 155546685"/>
    </person>
    <person id="66" depart="66.00">
        <walk edges="-41726075 158399739#1 -254945243 -33487028#1 24039836#1 24039836#4 gneE21 258139178 378298921#1 193703018#3"/>
    </person>
    <person id="67" depart="67.00">
        <walk edges="158399739#1 -254945243 -33487028#1 24039836#1 24039836#4 24039836#5 24039836#6 24039836#8 24039836#9"/>
    </person>
    <person id="68" depart="68.00">
        <walk edges="-86414054#0 -86414054#1 -33487028#4 -41726075 158399739#1 -254945243"/>
    </person>
    <person id="70" depart="70.00">
        <walk edges="158399739#1"/>
    </person>
    <person id="71" depart="71.00">
        <walk edges="244544045#3 244544045#2"/>
    </person>
    <person id="74" depart="74.00">
        <walk edges="-31344484 -33487028#4 -33487028#3 -33487028#2 -33487028#1 24039836#1 24039836#4 gneE21 258139178 258747556 105469274#0 gneE22 371076643#0 371076643#1 -533368701"/>
    </person>
    <person id="78" depart="78.00">
        <walk edges="-33487028#3 -33487028#2 -33487028#1 24039836#1 24039836#4 gneE21 258139178 378298921#1"/>
    </person>
    <person id="80" depart="80.00">
        <walk edges="-5785606 5785606 -155546692 -86414061"/>
    </person>
    <person id="81" depart="81.00">
        <walk edges="86414054#0 86414054#1 -33487028#4"/>
    </person>
    <person id="82" depart="82.00">
        <walk edges="533368701 371076643#1 371076643#0 gneE22 105469274#0 193703018#3 378298921#1"/>
    </person>
    <person id="86" depart="86.00">
        <walk edges="421145355#1 24039836#9 24039836#8 24039835#1 193703018#2 193703018#3 105469274#0"/>
    </person>
    <person id="87" depart="87.00">
        <walk edges="-155548876 332176204 5785422 31344484 -158399779#0 -158399779#1"/>
    </person>
    <person id="88" depart="88.00">
        <walk edges="258747525 gneE21 24039836#4 24039836#1"/>
    </person>
    <person id="90" depart="90.00">
        <walk edges="155546685 24039836#1 -33487028#1 -33487028#2 -33487028#3 -33487028#4 -31344484 5785422 332176204"/>
    </person>
    <person id="91" depart="91.00">
        <walk edges="-332176204 155548876 155546685 24039836#4 gneE21 258139178 258747556 105469274#0 gneE22 371076643#0 371076643#1 533368701"/>
    </person>
    <person id="94" depart="94.00">
        <walk edges="158399779#1 158399779#0 -33487028#4"/>
    </person>
    <person id="97" depart="97.00">
        <walk edges="-4662541#2 158399739#1 -41726075 -33487028#4 -31344484 -5785422"/>
    </person>
    <person id="99" depart="99.00">
        <walk edges="-5785606 421145355#1 24039836#9 24039836#8 24039835#1 193703018#2 193703018#3 105469274#0 258747528#0"/>
    </person>
    <person id="101" depart="101.00">
        <walk edges="-86414061 -155546685 24039836#4 gneE21 258139178 258747556 105469274#0 gneE22 -332176208#1 -364876164"/>
    </person>
    <person id="102" depart="102.00">
        <walk edges="421145355#1 24039836#9 24039836#8 24039836#6 24039836#5 24039836#4 24039836#1 -33487028#1"/>
    </person>
    <person id="103" depart="103.00">
        <walk edges="-364876164 -332176208#1 gneE22 105469274#0 258747556 258139178"/>
    </person>
    <person id="104" depart="104.00">
        <walk edges="193703019#0 378298925#12 24039836#5 24039836#4 24039836#1 -33487028#1 33487028#2"/>
    </person>
    <person id="105" depart="105.00">
        <walk edges="-308384344#0 -371746586#1 371076640#0"/>
    </person>
    <person id="106" depart="106.00">
        <walk edges="158399739#1 -41726075 -33487028#4 86414054#1"/>
    </person>
    <person id="107" depart="107.00">
        <walk edges="-41726075 33487028#4 158399779#0"/>
    </person>
    <person id="108" depart="108.00">
        <walk edges="-31344484 -33487028#4 -33487028#3 -33487028#2 -33487028#1 24039836#1 24039836#4 24039836#5"/>
    </person>
    <person id="109" depart="109.00">
        <walk edges="33487028#3 33487028#2 -33487028#1 24039836#1 24039836#4 gneE21 258139178 258747556 105469274#0 258747528#0 258747528#1"/>
    </person>
    <person id="113" depart="113.00">
        <walk edges="-533368700 533368700 371076643#1 371076643#0 gneE22 105469274#0 258747556 258139178 gneE21 24039836#4 24039836#1"/>
    </person>
    <person id="114" depart="114.00">
        <walk edges="24039836#5 24039836#4 155546685 86414054#0 86414054#1"/>
    </person>
    <person id="115" depart="115.00">
        <walk edges="5785422 -31344484 86414054#1 86414054#0 86414061 -155546691 196055609 24039836#8"/>
    </person>
    <person id="116" depart="116.00">
        <walk edges="196055609 24039836#8 24039835#1 193703018#2 193703018#3 105469274#0 gneE22 371076643#0 -533381127"/>
    </person>
    <person id="119" depart="119.00">
        <walk edges="533381127 371076643#0 gneE22 105469274#0"/>
    </person>
    <person id="120" depart="120.00">
        <walk edges="533368700 371076643#1 371076643#0 gneE22 258747528#0 258747528#1"/>
    </person>
    <person id="121" depart="121.00">
        <walk edges="-533368701 371076643#1 371076643#0 gneE22 105469274#0 193703018#3 193703018#2 24039835#1 24039836#8 24039836#9 421145355#1 -421145355#1 24039836#10"/>
    </person>
    <person id="122" depart="122.00">
        <walk edges="158399779#0 -33487028#4 -33487028#3 -33487028#2 -33487028#1 24039836#1 24039836#4 gneE21 374541985"/>
    </person>
    <person id="124" depart="124.00">
        <walk edges="86414058 -31344484 86414054#1 86414054#0 86414061"/>
    </person>
    <person id="125" depart="125.00">
        <walk edges="-158399739#0 -41726075 33487028#3"/>
    </person>
    <person id="128" depart="128.00">
        <walk edges="86414054#0 -86414054#0"/>
    </person>
    <person id="130" depart="130.00">
        <walk edges="-158399779#1 158399739#0 158399739#1 -254945243 33487028#2"/>
    </person>
    <person id="132" depart="132.00">
        <walk edges="214785685#6 214785685#5 214785685#4 4662541#2 158399739#1 158399739#0"/>
    </person>
    <person id="137" depart="137.00">
        <walk edges="-155546690 -155546692 5785606"/>
    </person>
    <person id="138" depart="138.00">
        <walk edges="421145355#1 155546692 86414061 86414054#0 86414054#1 -158399779#0"/>
    </person>
    <person id="139" depart="139.00">
        <walk edges="33487028#2 -33487028#1 24039836#1 24039836#4 gneE21 258139178 258747556 105469274#0 gneE22 371076643#0 371076643#1 -533368701"/>
    </person>
    <person id="140" depart="140.00">
        <walk edges="155546691 86414061 86414054#0 86414054#1 158399779#0 158399739#0"/>
    </person>
    <person id="144" depart="144.00">
        <walk edges="-155548876 332176204 5785422 31344484 33487028#4 33487028#3 33487028#2"/>
    </person>
    <person id="146" depart="146.00">
        <walk edges="258747528#1 258747528#0 105469274#0 258747556 258139178 gneE21 24039836#4 24039836#1 -33487028#1 -254945243 158399739#1 158399739#0 -158399779#1"/>
    </person>
    <person id="147" depart="147.00">
        <walk edges="-155546691 86414061 86414054#0 86414054#1 -158399779#0 -158399779#1"/>
    </person>
    <person id="149" depart="149.00">
        <walk edges="-33487028#3"/>
    </person>
    <person id="150" depart="150.00">
        <walk edges="-155548874 gneE22 105469274#0 258747556 258139178 gneE21 24039836#4 24039836#1 -33487028#1 33487028#2 33487028#3"/>
    </person>
    <person id="151" depart="151.00">
        <walk edges="-244544045#3 244544045#3 244544045#2 371746586#10 371746586#11"/>
    </person>
    <person id="156" depart="156.00">
        <walk edges="24039835#1 193703018#2 193703018#3 105469274#0 gneE22 371076643#0 371076643#1 533368701"/>
    </person>
    <person id="157" depart="157.00">
        <walk edges="86414058 31344484 33487028#4 -41726075 158399739#1"/>
    </person>
    <person id="158" depart="158.00">
        <walk edges="244544046 -243544432 244544045#3 -244544046"/>
    </person>
    <person id="160" depart="160.00">
        <walk edges="33487028#1 24039836#1 24039836#4 gneE21 258139178 258747556 105469274#0 gneE22 371076643#0 371076643#1 -533368701"/>
    </person>
    <person id="162" depart="162.00">
        <walk edges="-33487028#1 24039836#1 24039836#4 24039836#5 24039836#6 24039836#8 24039836#9 421145355#1 -5785606"/>
    </person>
    <person id="164" depart="164.00">
        <walk edges="-86414061 -155546685 24039836#4 gneE21 258139178 258747556 105469274#0 gneE22 -371746586#9"/>
    </person>
    <person id="165" depart="165.00">
        <walk edges="-86414054#0 86414061 -155546691 196055609"/>
    </person>
    <person id="168" depart="168.00">
        <walk edges="-158399739#0 -158399779#0 -31344484 -5785422"/>
    </person>
    <person id="169" depart="169.00">
        <walk edges="371076643#3 371076643#1 371076643#0 gneE22 105469274#0 258747556 258139178 gneE21 24039836#4 24039836#1 -33487028#1 -33487028#2 -33487028#3 -33487028#4 -31344484 86414058"/>
    </person>
    <person id="170" depart="170.00">
        <walk edges="-160565852 -254945243 -33487028#1 24039836#1 24039836#4 gneE21 258139178 258747556 105469274#0 gneE22 371076643#0 371076643#1 533368700"/>
    </person>
    <person id="172" depart="172.00">
        <walk edges="-86414058 31344484 -33487028#4 -33487028#3 -33487028#2 -33487028#1 24039836#1 24039836#4 gneE21"/>
    </person>
    <person id="173" depart="173.00">
        <walk edges="258747528#1 258747528#0 105469274#0 193703018#3 193703018#2 24039835#1 24039836#8 24039836#9 421145355#1 155546692"/>
    </person>
    <person id="174" depart="174.00">
        <walk edges="-364876164 -332176208#1 gneE22 105469274#0 193703018#3 193703018#2 378298925#12"/>
    </person>
    <person id="175" depart="175.00">
        <walk edges="-158399739#0 -158399739#1 -254945243 -33487028#1 24039836#1 24039836#4"/>
    </person>
    <person id="176" depart="176.00">
        <walk edges="86414061 -155546691 196055609 24039836#8 24039835#1 193703018#2 193703018#3 105469274#0 gneE22 371076643#0 371076643#1 533368700 -533368700"/>
    </person>
    <person id="177" depart="177.00">
        <walk edges="258747528#1 258747528#0 105469274#0 258747556 258139178 gneE21 24039836#4 24039836#1 -33487028#1"/>
    </person>
    <person id="178" depart="178.00">
        <walk edges="421145355#1 155546692 -86414061 -155548876"/>
    </person>
    <person id="179" depart="179.00">
        <walk edges="24039836#9 196055609 155546691 -155546692"/>
    </person>
    <person id="180" depart="180.00">
        <walk edges="-155546685 86414061 155546692 -421145355#1 24039836#10"/>
    </person>
    <person id="181" depart="181.00">
        <walk edges="-158399739#1 -41726075 33487028#4 158399779#0"/>
    </person>
    <person id="182" depart="182.00">
        <walk edges="-371746586#9 gneE22 105469274#0 258747556 258139178 gneE21 24039836#4 24039836#1 -33487028#1 -33487028#2 -33487028#3 -33487028#4 -31344484 86414058"/>
    </person>
    <person id="185" depart="185.00">
        <walk edges="-86414054#0 155546685 24039836#4 gneE21 258139178 258747556 105469274#0 gneE22 371076643#0 371076643#1"/>
    </person>
    <person id="188" depart="188.00">
        <walk edges="-155546692 155546691 196055609 24039836#8 24039836#6 24039836#5 24039836#4 155546685"/>
    </person>
    <person id="190" depart="190.00">
        <walk edges="31344484 -158399779#0"/>
    </person>
    <person id="191" depart="191.00">
        <walk edges="160565852 158399739#1 -41726075 -33487028#4 86414054#1 86414054#0 155548876"/>
    </person>
    <person id="194" depart="194.00">
        <walk edges="158399739#0 158399739#1 -254945243 -33487028#1 24039836#1 24039836#4 gneE21 258139178 378298921#1 193703018#3"/>
    </person>
    <person id="199" depart="199.00">
        <walk edges="371076643#1 371076643#0 gneE22"/>
    </person>
    <person id="201" depart="201.00">
        <walk edges="160565852 158399739#1 -41726075 -33487028#4 86414054#1 86414054#0 -86414061 -155546690 155546690"/>
    </person>
    <person id="202" depart="202.00">
        <walk edges="-86414058 31344484 86414054#1 86414054#0 86414061 -155546691"/>
    </person>
    <person id="203" depart="203.00">
        <walk edges="155548874 gneE22 105469274#0 258747556 258139178 gneE21 24039836#4 24039836#1 -33487028#1 -33487028#2 -33487028#3 -33487028#4 158399779#0"/>
    </person>
    <person id="204" depart="204.00">
        <walk edges="533368700 371076643#1 371076643#0 gneE22 105469274#0 258747556 258139178 gneE21 24039836#4 24039836#1 -33487028#1 33487028#2 33487028#3"/>
    </person>
    <person id="206" depart="206.00">
        <walk edges="160565852 -254945243 -33487028#1 24039836#1 24039836#4 gneE21 258139178 258747556 105469274#0 gneE22 371076643#0 371076643#1 -533368701"/>
    </person>
    <person id="208" depart="208.00">
        <walk edges="-158399779#0 158399739#0 158399739#1 -254945243 -33487028#1 24039836#1 24039836#4 gneE21 258139178 378298921#1"/>
    </person>
    <person id="212" depart="212.00">
        <walk edges="-332176204 155548876 -86414061 -155546692 -421145355#1 24039836#10"/>
    </person>
    <person id="213" depart="213.00">
        <walk edges="-332176204 155548876 155546685 24039836#4 gneE21 258139178 258747556 105469274#0"/>
    </person>
    <person id="214" depart="214.00">
        <walk edges="155548876 86414054#0 86414054#1 -33487028#4 -41726075 -158399739#0"/>
    </person>
    <person id="217" depart="217.00">
        <walk edges="158399739#0 158399739#1 160565852"/>
    </person>
    <person id="218" depart="218.00">
        <walk edges="-155546685 86414054#0 86414054#1 -31344484 5785422"/>
    </person>
    <person id="221" depart="221.00">
        <walk edges="158399739#1 -41726075 33487028#4 31344484 -86414058"/>
    </person>
    <person id="224" depart="224.00">
        <walk edges="-158399739#0 -158399739#1 -254945243 -33487028#1 24039836#1 24039836#4 gneE21 258139178 378298921#1"/>
    </person>
    <person id="225" depart="225.00">
        <walk edges="533368700 371076643#1 371076643#0 gneE22 105469274#0 258747556 258139178 gneE21 24039836#4 155546685 86414054#0"/>
    </person>
    <person id="226" depart="226.00">
        <walk edges="33487028#3 33487028#2 -33487028#1 24039836#1 24039836#4 gneE21 258139178 258747556 105469274#0 gneE22 155548874"/>
    </person>
    <person id="227" depart="227.00">
        <walk edges="-533368701 371076643#1 -364876164"/>
    </person>
    <person id="233" depart="233.00">
        <walk edges="378298925#12 24039836#5 24039836#4 24039836#1 -33487028#1 -254945243 4662541#2 214785685#4 214785685#5"/>
    </person>
    <person id="236" depart="236.00">
        <walk edges="24039835#1 24039836#8 196055609 -155546691 86414061 86414054#0 86414054#1 158399779#0 158399779#1"/>
    </person>
    <person id="238" depart="238.00">
        <walk edges="-5785606 421145355#1 24039836#9 24039836#8 24039836#6 24039836#5"/>
    </person>
    <person id="239" depart="239.00">
        <walk edges="-41726075 158399739#1 -254945243 -33487028#1 24039836#1 24039836#4 24039836#5 24039836#6 24039836#8 24039836#9"/>
    </person>
    <person id="242" depart="242.00">
        <walk edges="258747528#0 105469274#0 258747556 258139178 gneE21"/>
    </person>
    <person id="243" depart="243.00">
        <walk edges="-364876164 -332176208#1 gneE22 105469274#0 258747556 258139178 gneE21 24039836#4 24039836#1 -33487028#1 -254945243 158399739#1 158399739#0 -158399779#1"/>
    </person>
    <person id="244" depart="244.00">
        <walk edges="258139178 gneE21 24039836#4 24039836#1 -33487028#1 -254945243 158399739#1 158399739#0 -158399779#1"/>
    </person>
    <person id="245" depart="245.00">
        <walk edges="158399779#1 158399779#0 86414054#1 86414054#0 155548876"/>
    </person>
    <person id="246" depart="246.00">
        <walk edges="158399779#1 -158399739#0 -158399739#1 160565852"/>
    </person>
    <person id="248" depart="248.00">
        <walk edges="214785685#3"/>
    </person>
    <person id="251" depart="251.00">
        <walk edges="-86414054#0 -86414054#1 -33487028#4 -41726075 158399739#1 4662541#2"/>
    </person>
    <person id="253" depart="253.00">
        <walk edges="160565852 -254945243 -33487028#1 24039836#1 24039836#4 24039836#5 24039836#6 24039836#8"/>
    </person>
    <person id="254" depart="254.00">
        <walk edges="371076643#0 gneE22 105469274#0 258747556 258139178 gneE21 24039836#4 24039836#1 -33487028#1 -254945243 -158399739#1 -158399739#0"/>
    </person>
    <person id="255" depart="255.00">
        <walk edges="-33487028#3 -41726075 158399739#1 -4662541#2"/>
    </person>
    <person id="256" depart="256.00">
        <walk edges="-155546690 86414061"/>
    </person>
    <person id="257" depart="257.00">
        <walk edges="31344484 158399779#0 158399739#0"/>
    </person>
    <person id="258" depart="258.00">
        <walk edges="421145355#1 24039836#9 24039836#8 24039836#6 24039836#5"/>
    </person>
    <person id="259" depart="259.00">
        <walk edges="378298921#1 193703018#2 24039835#1 24039836#8 196055609 -155546691"/>
    </person>
    <person id="260" depart="260.00">
        <walk edges="-86414054#1 -33487028#4 -41726075 -158399739#1 -160565852"/>
    </person>
    <person id="262" depart="262.00">
        <walk edges="-31344484 -158399779#0 -158399739#0"/>
    </person>
    <person id="265" depart="265.00">
        <walk edges="33487028#4 33487028#3 33487028#2"/>
    </person>
    <person id="267" depart="267.00">
        <walk edges="-364876164 -332176208#1 gneE22 105469274#0 258747556 258139178 gneE21 24039836#4 24039836#1 -33487028#1"/>
    </person>
    <person id="268" depart="268.00">
        <walk edges="gneE22 105469274#0 258747556 258139178 gneE21 24039836#4 24039836#1 -33487028#1 -33487028#2 -33487028#3 -33487028#4 31344484 -86414058"/>
    </person>
    <person id="270" depart="270.00">
        <walk edges="-41726075 -33487028#4 86414054#1 86414054#0 86414061 155546692"/>
    </person>
    <person id="272" depart="272.00">
        <walk edges="-533381127 371076643#0 gneE22 105469274#0 193703018#3 193703018#2"/>
    </person>
    <person id="273" depart="273.00">
        <walk edges="351235033 gneE22 105469274#0 258747556 258139178 374541985"/>
    </person>
    <person id="274" depart="274.00">
        <walk edges="155546692 421145355#1 24039836#9 24039836#8 24039836#6 24039836#5 24039836#4 24039836#1 -33487028#1 33487028#2"/>
    </person>
    <person id="275" depart="275.00">
        <walk edges="-332176204 -5785422 -31344484 -158399779#0 -158399739#0"/>
    </person>
    <person id="278" depart="278.00">
        <walk edges="-155546690 -155546691 196055609 24039836#8 24039835#1 193703018#2 193703018#3 105469274#0 gneE22 -371746586#9"/>
    </person>
    <person id="281" depart="281.00">
        <walk edges="-371746586#9 gneE22"/>
    </person>
    <person id="282" depart="282.00">
        <walk edges="-4662541#2 -254945243 -33487028#1 24039836#1 24039836#4 24039836#5 24039836#6 24039836#8"/>
    </person>
    <person id="283" depart="283.00">
        <walk edges="gneE21 24039836#4 24039836#1 -33487028#1 33487028#2"/>
    </person>
    <person id="284" depart="284.00">
        <walk edges="24039835#1 193703018#2 193703018#3 105469274#0 gneE22 371076643#0 371076643#1 533368701"/>
    </person>
    <person id="287" depart="287.00">
        <walk edges="31344484 -33487028#4 -33487028#3 -33487028#2 -33487028#1 24039836#1 24039836#4 gneE21 258139178"/>
    </person>
    <person id="288" depart="288.00">
        <walk edges="-158399739#1 -254945243 -33487028#1 24039836#1 24039836#4 gneE21 258139178 258747556 105469274#0 gneE22 371076643#0 371076643#1 533368701"/>
    </person>
    <person id="289" depart="289.00">
        <walk edges="-155546691 196055609 24039836#8 24039835#1 193703018#2 193703018#3 105469274#0 gneE22 371076643#0 -533381127"/>
    </person>
    <person id="291" depart="291.00">
        <walk edges="-33487028#4 86414054#1 86414054#0 86414061 -155546691 196055609 24039836#9"/>
    </person>
    <person id="292" depart="292.00">
        <walk edges="155546690 155546691 196055609 24039836#8 24039835#1 193703018#2 193703018#3 105469274#0 gneE22 -155548874"/>
    </person>
    <person id="294" depart="294.00">
        <walk edges="258139178 gneE21 24039836#4 24039836#1 -33487028#1 -254945243 4662541#2 214785685#4"/>
    </person>
    <person id="298" depart="298.00">
        <walk edges="-254945243 33487028#1 214785685#3"/>
    </person>
    <person id="299" depart="299.00">
        <walk edges="-160565852 -254945243 -33487028#1 24039836#1 24039836#4 24039836#5 24039836#6"/>
    </person>
    <person id="300" depart="300.00">
        <walk edges="158399739#1 -254945243 -33487028#1 24039836#1 24039836#4 24039836#5 24039836#6"/>
    </person>
    <person id="302" depart="302.00">
        <walk edges="gneE22 105469274#0 258747556 258139178 gneE21 24039836#4 24039836#1 -33487028#1 -33487028#2 -33487028#3 -33487028#4 31344484"/>
    </person>
    <person id="303" depart="303.00">
        <walk edges="155548876 86414054#0 86414054#1"/>
    </person>
    <person id="304" depart="304.00">
        <walk edges="86414058 -31344484 -33487028#4 -33487028#3 -33487028#2"/>
    </person>
    <person id="306" depart="306.00">
        <walk edges="158399779#0 -86414054#1"/>
    </person>
    <person id="307" depart="307.00">
        <walk edges="-86414061 -155546691 196055609 24039836#8 24039835#1 193703018#2"/>
    </person>
    <person id="309" depart="309.00">
        <walk edges="105469274#0 258747556 258139178 gneE21 24039836#4 24039836#1 -33487028#1 -254945243 4662541#2 214785685#4 214785685#5 214785685#6"/>
    </person>
    <person id="312" depart="312.00">
        <walk edges="gneE22"/>
    </person>
    <person id="314" depart="314.00">
        <walk edges="-155546691 86414061 86414054#0 86414054#1 158399779#0 158399779#1"/>
    </person>
    <person id="316" depart="316.00">
        <walk edges="-244544045#2 371746586#10 371746586#11 371746586#12"/>
    </person>
    <person id="317" depart="317.00">
        <walk edges="-158399739#1 -158399739#0 -158399779#0"/>
    </person>
    <person id="319" depart="319.00">
        <walk edges="gneE21 258139178 378298921#1 193703018#2"/>
    </person>
    <person id="321" depart="321.00">
        <walk edges="-155546691 196055609 24039836#8 24039835#1 193703018#2 193703018#3 105469274#0 gneE22 371076643#0 371076643#1 533368700"/>
    </person>
    <person id="322" depart="322.00">
        <walk edges="-33487028#3 -41726075 158399739#1 4662541#2 214785685#4 214785685#5 214785685#6"/>
    </person>
    <person id="323" depart="323.00">
        <walk edges="258747525 378298921#1"/>
    </person>
    <person id="325" depart="325.00">
        <walk edges="214785685#3 33487028#1 33487028#2 33487028#3 33487028#4 31344484"/>
    </person>
    <person id="328" depart="328.00">
        <walk edges="-155546692 -86414061 155548876"/>
    </person>
    <person id="331" depart="331.00">
        <walk edges="86414054#0 86414061"/>
    </person>
    <person id="333" depart="333.00">
        <walk edges="371076643#3 371076643#1 371076643#0 gneE22 105469274#0 193703018#3 193703018#2 193703019#0"/>
    </person>