<?xml version="1.0" encoding="UTF-8"?>

<!-- generated on 2022-02-22 12:02:04 by Eclipse SUMO netconvert Version 1.12.0
<configuration xmlns:xsi="http://www.w3.org/2001/XMLSchema-instance" xsi:noNamespaceSchemaLocation="http://sumo.dlr.de/xsd/netconvertConfiguration.xsd">

    <input>
        <osm-files value="isartor_medium_150m.osm"/>
    </input>

    <output>
        <output-file value="isartor.net.xml"/>
    </output>

    <projection>
        <proj.utm value="true"/>
    </projection>

    <processing>
        <geometry.remove value="true"/>
    </processing>

    <tls_building>
        <tls.discard-simple value="true"/>
        <tls.join value="true"/>
        <tls.guess-signals value="true"/>
        <tls.default-type value="actuated"/>
    </tls_building>

    <ramp_guessing>
        <ramps.guess value="true"/>
    </ramp_guessing>

    <junctions>
        <junctions.join value="true"/>
    </junctions>

    <report>
        <aggregate-warnings value="5"/>
    </report>

</configuration>
-->

<net version="1.9" junctionCornerDetail="5" limitTurnSpeed="5.50" xmlns:xsi="http://www.w3.org/2001/XMLSchema-instance" xsi:noNamespaceSchemaLocation="http://sumo.dlr.de/xsd/net_file.xsd">

    <location netOffset="-691724.84,-5333529.25" convBoundary="0.00,0.00,1810.15,1174.03" origBoundary="11.577092,48.125588,11.600876,48.136670" projParameter="+proj=utm +zone=32 +ellps=WGS84 +datum=WGS84 +units=m +no_defs"/>

    <type id="highway.bridleway" priority="1" numLanes="1" speed="2.78" allow="pedestrian" oneway="1" width="2.00"/>
    <type id="highway.bus_guideway" priority="1" numLanes="1" speed="27.78" allow="bus" oneway="1"/>
    <type id="highway.cycleway" priority="1" numLanes="1" speed="8.33" allow="bicycle" oneway="0" width="1.00"/>
    <type id="highway.footway" priority="1" numLanes="1" speed="2.78" allow="pedestrian" oneway="1" width="2.00"/>
    <type id="highway.ford" priority="1" numLanes="1" speed="2.78" allow="army" oneway="0"/>
    <type id="highway.living_street" priority="2" numLanes="1" speed="2.78" disallow="tram rail_urban rail rail_electric rail_fast ship" oneway="0"/>
    <type id="highway.motorway" priority="14" numLanes="2" speed="39.44" allow="private emergency authority army vip passenger hov taxi bus coach delivery truck trailer motorcycle evehicle custom1 custom2" oneway="1"/>
    <type id="highway.motorway_link" priority="9" numLanes="1" speed="22.22" allow="private emergency authority army vip passenger hov taxi bus coach delivery truck trailer motorcycle evehicle custom1 custom2" oneway="1"/>
    <type id="highway.path" priority="1" numLanes="1" speed="2.78" allow="pedestrian bicycle" oneway="0" width="2.00"/>
    <type id="highway.pedestrian" priority="1" numLanes="1" speed="2.78" allow="pedestrian" oneway="1" width="2.00"/>
    <type id="highway.primary" priority="12" numLanes="2" speed="27.78" disallow="tram rail_urban rail rail_electric rail_fast ship" oneway="0"/>
    <type id="highway.primary_link" priority="7" numLanes="1" speed="22.22" disallow="tram rail_urban rail rail_electric rail_fast ship" oneway="0"/>
    <type id="highway.raceway" priority="15" numLanes="2" speed="83.33" allow="vip" oneway="0"/>
    <type id="highway.residential" priority="3" numLanes="1" speed="13.89" disallow="tram rail_urban rail rail_electric rail_fast ship" oneway="0"/>
    <type id="highway.secondary" priority="11" numLanes="1" speed="27.78" disallow="tram rail_urban rail rail_electric rail_fast ship" oneway="0"/>
    <type id="highway.secondary_link" priority="6" numLanes="1" speed="22.22" disallow="tram rail_urban rail rail_electric rail_fast ship" oneway="0"/>
    <type id="highway.service" priority="1" numLanes="1" speed="5.56" allow="pedestrian delivery bicycle" oneway="0"/>
    <type id="highway.stairs" priority="1" numLanes="1" speed="1.39" allow="pedestrian" oneway="1" width="2.00"/>
    <type id="highway.step" priority="1" numLanes="1" speed="1.39" allow="pedestrian" oneway="1" width="2.00"/>
    <type id="highway.steps" priority="1" numLanes="1" speed="1.39" allow="pedestrian" oneway="1" width="2.00"/>
    <type id="highway.tertiary" priority="10" numLanes="1" speed="22.22" disallow="tram rail_urban rail rail_electric rail_fast ship" oneway="0"/>
    <type id="highway.tertiary_link" priority="5" numLanes="1" speed="22.22" disallow="tram rail_urban rail rail_electric rail_fast ship" oneway="0"/>
    <type id="highway.track" priority="1" numLanes="1" speed="5.56" allow="pedestrian motorcycle moped bicycle" oneway="0"/>
    <type id="highway.trunk" priority="13" numLanes="2" speed="27.78" disallow="pedestrian bicycle tram rail_urban rail rail_electric rail_fast ship" oneway="0"/>
    <type id="highway.trunk_link" priority="8" numLanes="1" speed="22.22" disallow="pedestrian bicycle tram rail_urban rail rail_electric rail_fast ship" oneway="0"/>
    <type id="highway.unclassified" priority="4" numLanes="1" speed="13.89" disallow="tram rail_urban rail rail_electric rail_fast ship" oneway="0"/>
    <type id="highway.unsurfaced" priority="1" numLanes="1" speed="8.33" disallow="tram rail_urban rail rail_electric rail_fast ship" oneway="0"/>
    <type id="railway.highspeed" priority="21" numLanes="1" speed="69.44" allow="rail_fast" oneway="1"/>
    <type id="railway.light_rail" priority="19" numLanes="1" speed="27.78" allow="rail_urban" oneway="1"/>
    <type id="railway.preserved" priority="16" numLanes="1" speed="27.78" allow="rail" oneway="1"/>
    <type id="railway.rail" priority="20" numLanes="1" speed="44.44" allow="rail" oneway="1"/>
    <type id="railway.subway" priority="18" numLanes="1" speed="27.78" allow="rail_urban" oneway="1"/>
    <type id="railway.tram" priority="17" numLanes="1" speed="13.89" allow="tram" oneway="1"/>

    <edge id=":1175412936_0" function="internal">
        <lane id=":1175412936_0_0" index="0" allow="rail rail_electric rail_fast" speed="16.67" length="0.10" shape="1661.50,23.68 1661.50,23.68"/>
    </edge>
    <edge id=":1469133526_0" function="internal">
        <lane id=":1469133526_0_0" index="0" allow="rail rail_electric rail_fast" speed="16.67" length="0.27" shape="391.21,983.31 391.01,983.49"/>
    </edge>
    <edge id=":18933344_0" function="internal">
        <lane id=":18933344_0_0" index="0" allow="pedestrian bicycle" speed="5.29" length="7.07" width="2.00" shape="326.74,1002.19 328.77,1002.27 330.10,1001.63 330.73,1000.27 330.68,998.20"/>
    </edge>
    <edge id=":18933344_1" function="internal">
        <lane id=":18933344_1_0" index="0" disallow="tram rail_urban rail rail_electric rail_fast ship" speed="6.74" length="9.03" shape="326.74,1002.19 329.37,1002.36 331.44,1001.79 332.96,1000.49 333.92,998.45"/>
    </edge>
    <edge id=":18933344_2" function="internal">
        <lane id=":18933344_2_0" index="0" disallow="tram rail_urban rail rail_electric rail_fast ship" speed="3.65" length="4.67" shape="326.74,1002.19 327.78,1003.20 328.03,1004.05 327.49,1004.77 326.17,1005.34"/>
    </edge>
    <edge id=":18933344_3" function="internal">
        <lane id=":18933344_3_0" index="0" disallow="tram rail_urban rail rail_electric rail_fast ship" speed="6.42" length="9.04" shape="330.50,1011.89 330.70,1009.40 330.04,1007.49 328.53,1006.13 326.17,1005.34"/>
    </edge>
    <edge id=":18933344_4" function="internal">
        <lane id=":18933344_4_0" index="0" allow="pedestrian bicycle" speed="5.56" length="13.78" width="2.00" shape="330.50,1011.89 331.11,1008.38 331.31,1005.06 331.15,1001.73 330.68,998.20"/>
    </edge>
    <edge id=":18933344_5" function="internal">
        <lane id=":18933344_5_0" index="0" disallow="tram rail_urban rail rail_electric rail_fast ship" speed="8.33" length="13.86" shape="330.50,1011.89 333.92,998.45"/>
    </edge>
    <edge id=":274115140_0" function="internal">
        <lane id=":274115140_0_0" index="0" disallow="tram rail_urban rail rail_electric rail_fast ship" speed="8.33" length="5.26" shape="318.54,1003.95 313.35,1003.07"/>
    </edge>
    <edge id=":274115140_1" function="internal">
        <lane id=":274115140_1_0" index="0" disallow="tram rail_urban rail rail_electric rail_fast ship" speed="8.33" length="5.34" shape="313.85,999.91 319.11,1000.80"/>
    </edge>
    <edge id=":3685643045_0" function="internal">
        <lane id=":3685643045_0_0" index="0" allow="rail rail_electric rail_fast" speed="16.67" length="0.10" shape="1333.23,277.68 1333.23,277.68"/>
    </edge>
    <edge id=":3685643059_0" function="internal">
        <lane id=":3685643059_0_0" index="0" allow="rail rail_electric rail_fast" speed="16.67" length="0.10" shape="735.16,725.46 735.16,725.46"/>
    </edge>
    <edge id=":398753_0" function="internal">
        <lane id=":398753_0_0" index="0" disallow="tram rail_urban rail rail_electric rail_fast ship" speed="3.65" length="4.67" shape="193.29,1003.79 191.99,1003.18 191.47,1002.45 191.75,1001.60 192.82,1000.63"/>
    </edge>
    <edge id=":4048727589_0" function="internal">
        <lane id=":4048727589_0_0" index="0" allow="pedestrian bicycle" speed="2.78" length="1.62" width="2.00" shape="354.12,989.51 355.74,989.56"/>
    </edge>
    <edge id=":4048727591_0" function="internal">
        <lane id=":4048727591_0_0" index="0" allow="pedestrian bicycle" speed="2.78" length="5.04" width="2.00" shape="367.84,998.46 363.73,995.55"/>
    </edge>
    <edge id=":4048727593_0" function="internal">
        <lane id=":4048727593_0_0" index="0" allow="pedestrian bicycle" speed="2.78" length="0.76" width="2.00" shape="377.43,1005.54 376.83,1005.09"/>
    </edge>
    <edge id=":4294189501_0" function="internal">
        <lane id=":4294189501_0_0" index="0" allow="rail rail_electric rail_fast" speed="16.67" length="0.10" shape="1130.18,471.65 1130.18,471.65"/>
    </edge>
    <edge id=":595401203_0" function="internal">
        <lane id=":595401203_0_0" index="0" disallow="tram rail_urban rail rail_electric rail_fast ship" speed="13.89" length="7.21" shape="311.20,951.26 313.50,951.33 315.11,951.05 316.69,950.88 318.94,951.25"/>
        <lane id=":595401203_0_1" index="1" disallow="tram rail_urban rail rail_electric rail_fast ship" speed="13.89" length="7.21" shape="310.76,954.43 312.93,954.48 314.45,954.19 315.95,953.99 318.06,954.33"/>
        <lane id=":595401203_0_2" index="2" disallow="tram rail_urban rail rail_electric rail_fast ship" speed="13.89" length="7.21" shape="310.32,957.60 312.37,957.63 313.80,957.33 315.20,957.11 317.19,957.40"/>
        <lane id=":595401203_0_3" index="3" disallow="tram rail_urban rail rail_electric rail_fast ship" speed="13.89" length="7.21" shape="310.32,957.60 312.20,958.11 313.36,958.87 314.50,959.71 316.32,960.48"/>
    </edge>
    <edge id=":595404856_0" function="internal">
        <lane id=":595404856_0_0" index="0" disallow="tram rail_urban rail rail_electric rail_fast ship" speed="8.33" length="8.29" shape="376.25,1024.55 374.36,1026.12 373.00,1027.11 371.58,1028.02 369.48,1029.30"/>
    </edge>
    <edge id=":630908631_0" function="internal">
        <lane id=":630908631_0_0" index="0" allow="pedestrian bicycle" speed="2.78" length="5.07" width="2.00" shape="405.84,1029.08 401.99,1025.78"/>
    </edge>
    <edge id=":cluster_1368309489_1368309490_21263461_292766574_292766576_295122_595390728_595396840_595396852_616684899_0" function="internal">
        <lane id=":cluster_1368309489_1368309490_21263461_292766574_292766576_295122_595390728_595396840_595396852_616684899_0_0" index="0" allow="pedestrian bicycle" speed="8.33" length="21.41" shape="333.51,984.65 332.39,980.63 329.39,977.23 324.53,974.43 317.78,972.26"/>
    </edge>
    <edge id=":cluster_1368309489_1368309490_21263461_292766574_292766576_295122_595390728_595396840_595396852_616684899_1" function="internal">
        <lane id=":cluster_1368309489_1368309490_21263461_292766574_292766576_295122_595390728_595396840_595396852_616684899_1_0" index="0" allow="pedestrian bicycle" speed="2.78" length="5.26" width="2.00" shape="333.51,984.65 336.10,982.27 337.54,981.28"/>
    </edge>
    <edge id=":cluster_1368309489_1368309490_21263461_292766574_292766576_295122_595390728_595396840_595396852_616684899_2" function="internal">
        <lane id=":cluster_1368309489_1368309490_21263461_292766574_292766576_295122_595390728_595396840_595396852_616684899_2_0" index="0" allow="bicycle" speed="8.33" length="5.61" shape="333.51,984.65 338.40,981.89"/>
    </edge>
    <edge id=":cluster_1368309489_1368309490_21263461_292766574_292766576_295122_595390728_595396840_595396852_616684899_3" function="internal">
        <lane id=":cluster_1368309489_1368309490_21263461_292766574_292766576_295122_595390728_595396840_595396852_616684899_3_0" index="0" allow="bicycle" speed="5.55" length="4.77" width="1.00" shape="334.01,984.63 335.10,979.99"/>
    </edge>
    <edge id=":cluster_1368309489_1368309490_21263461_292766574_292766576_295122_595390728_595396840_595396852_616684899_4" function="internal">
        <lane id=":cluster_1368309489_1368309490_21263461_292766574_292766576_295122_595390728_595396840_595396852_616684899_4_0" index="0" allow="pedestrian bicycle" speed="8.33" length="4.97" shape="333.51,984.65 334.75,979.83"/>
    </edge>
    <edge id=":cluster_1368309489_1368309490_21263461_292766574_292766576_295122_595390728_595396840_595396852_616684899_26" function="internal">
        <lane id=":cluster_1368309489_1368309490_21263461_292766574_292766576_295122_595390728_595396840_595396852_616684899_26_0" index="0" allow="pedestrian bicycle" speed="2.78" length="44.69" width="2.00" shape="337.54,981.28 343.93,976.93 357.00,968.65 375.32,957.40"/>
    </edge>
    <edge id=":cluster_1368309489_1368309490_21263461_292766574_292766576_295122_595390728_595396840_595396852_616684899_27" function="internal">
        <lane id=":cluster_1368309489_1368309490_21263461_292766574_292766576_295122_595390728_595396840_595396852_616684899_27_0" index="0" allow="bicycle" speed="8.33" length="44.27" shape="338.40,981.89 376.95,960.14"/>
    </edge>
    <edge id=":cluster_1368309489_1368309490_21263461_292766574_292766576_295122_595390728_595396840_595396852_616684899_28" function="internal">
        <lane id=":cluster_1368309489_1368309490_21263461_292766574_292766576_295122_595390728_595396840_595396852_616684899_28_0" index="0" allow="bicycle" speed="5.55" length="57.49" width="1.00" shape="335.10,979.99 337.60,969.39 348.21,963.26 363.50,964.59 381.11,971.74"/>
    </edge>
    <edge id=":cluster_1368309489_1368309490_21263461_292766574_292766576_295122_595390728_595396840_595396852_616684899_29" function="internal">
        <lane id=":cluster_1368309489_1368309490_21263461_292766574_292766576_295122_595390728_595396840_595396852_616684899_29_0" index="0" allow="pedestrian bicycle" speed="8.33" length="48.68" shape="334.75,979.83 336.65,972.41 346.12,968.68 359.77,971.16 375.47,977.58"/>
    </edge>
    <edge id=":cluster_1368309489_1368309490_21263461_292766574_292766576_295122_595390728_595396840_595396852_616684899_5" function="internal">
        <lane id=":cluster_1368309489_1368309490_21263461_292766574_292766576_295122_595390728_595396840_595396852_616684899_5_0" index="0" disallow="tram rail_urban rail rail_electric rail_fast ship" speed="10.58" length="29.61" shape="338.05,988.83 338.64,983.88 335.46,979.47 328.51,975.60 317.78,972.26"/>
    </edge>
    <edge id=":cluster_1368309489_1368309490_21263461_292766574_292766576_295122_595390728_595396840_595396852_616684899_6" function="internal">
        <lane id=":cluster_1368309489_1368309490_21263461_292766574_292766576_295122_595390728_595396840_595396852_616684899_6_0" index="0" allow="pedestrian bicycle" speed="5.56" length="6.96" width="2.00" shape="338.05,988.83 342.85,983.78"/>
    </edge>
    <edge id=":cluster_1368309489_1368309490_21263461_292766574_292766576_295122_595390728_595396840_595396852_616684899_7" function="internal">
        <lane id=":cluster_1368309489_1368309490_21263461_292766574_292766576_295122_595390728_595396840_595396852_616684899_7_0" index="0" disallow="pedestrian tram rail_urban rail rail_electric rail_fast ship" speed="11.11" length="48.22" shape="338.05,988.83 343.63,984.16 354.69,977.61 367.57,970.19 378.61,962.90"/>
    </edge>
    <edge id=":cluster_1368309489_1368309490_21263461_292766574_292766576_295122_595390728_595396840_595396852_616684899_8" function="internal">
        <lane id=":cluster_1368309489_1368309490_21263461_292766574_292766576_295122_595390728_595396840_595396852_616684899_8_0" index="0" allow="bicycle" speed="8.33" length="6.84" width="1.00" shape="339.04,989.30 342.72,983.53"/>
    </edge>
    <edge id=":cluster_1368309489_1368309490_21263461_292766574_292766576_295122_595390728_595396840_595396852_616684899_9" function="internal">
        <lane id=":cluster_1368309489_1368309490_21263461_292766574_292766576_295122_595390728_595396840_595396852_616684899_9_0" index="0" disallow="tram rail_urban rail rail_electric rail_fast ship" speed="11.11" length="6.85" shape="338.05,988.83 341.92,983.18"/>
    </edge>
    <edge id=":cluster_1368309489_1368309490_21263461_292766574_292766576_295122_595390728_595396840_595396852_616684899_30" function="internal">
        <lane id=":cluster_1368309489_1368309490_21263461_292766574_292766576_295122_595390728_595396840_595396852_616684899_30_0" index="0" allow="pedestrian bicycle" speed="5.56" length="41.87" width="2.00" shape="342.85,983.78 344.18,982.38 355.89,972.40 367.99,962.77 375.32,957.40"/>
    </edge>
    <edge id=":cluster_1368309489_1368309490_21263461_292766574_292766576_295122_595390728_595396840_595396852_616684899_31" function="internal">
        <lane id=":cluster_1368309489_1368309490_21263461_292766574_292766576_295122_595390728_595396840_595396852_616684899_31_0" index="0" allow="bicycle" speed="8.33" length="45.56" width="1.00" shape="342.72,983.53 347.35,976.27 357.12,969.00 368.38,967.49 381.11,971.74"/>
    </edge>
    <edge id=":cluster_1368309489_1368309490_21263461_292766574_292766576_295122_595390728_595396840_595396852_616684899_32" function="internal">
        <lane id=":cluster_1368309489_1368309490_21263461_292766574_292766576_295122_595390728_595396840_595396852_616684899_32_0" index="0" disallow="tram rail_urban rail rail_electric rail_fast ship" speed="11.11" length="37.68" shape="341.92,983.18 344.62,979.24 353.04,974.17 363.32,973.61 375.47,977.58"/>
    </edge>
    <edge id=":cluster_1368309489_1368309490_21263461_292766574_292766576_295122_595390728_595396840_595396852_616684899_10" function="internal">
        <lane id=":cluster_1368309489_1368309490_21263461_292766574_292766576_295122_595390728_595396840_595396852_616684899_10_0" index="0" allow="pedestrian bicycle" speed="8.33" length="42.30" shape="355.55,989.49 349.12,986.00 338.90,979.63 327.75,973.11 318.54,969.15"/>
    </edge>
    <edge id=":cluster_1368309489_1368309490_21263461_292766574_292766576_295122_595390728_595396840_595396852_616684899_11" function="internal">
        <lane id=":cluster_1368309489_1368309490_21263461_292766574_292766576_295122_595390728_595396840_595396852_616684899_11_0" index="0" allow="pedestrian bicycle" speed="2.78" length="8.43" width="2.00" shape="355.55,989.49 349.11,984.04"/>
    </edge>
    <edge id=":cluster_1368309489_1368309490_21263461_292766574_292766576_295122_595390728_595396840_595396852_616684899_12" function="internal">
        <lane id=":cluster_1368309489_1368309490_21263461_292766574_292766576_295122_595390728_595396840_595396852_616684899_12_0" index="0" allow="bicycle" speed="8.33" length="2.09" shape="355.55,989.49 355.74,987.42"/>
    </edge>
    <edge id=":cluster_1368309489_1368309490_21263461_292766574_292766576_295122_595390728_595396840_595396852_616684899_13" function="internal">
        <lane id=":cluster_1368309489_1368309490_21263461_292766574_292766576_295122_595390728_595396840_595396852_616684899_13_0" index="0" allow="bicycle" speed="5.55" length="31.52" width="1.00" shape="355.39,989.97 381.11,971.74"/>
    </edge>
    <edge id=":cluster_1368309489_1368309490_21263461_292766574_292766576_295122_595390728_595396840_595396852_616684899_14" function="internal">
        <lane id=":cluster_1368309489_1368309490_21263461_292766574_292766576_295122_595390728_595396840_595396852_616684899_14_0" index="0" allow="pedestrian bicycle" speed="7.82" length="2.09" shape="355.55,989.49 355.74,987.42"/>
    </edge>
    <edge id=":cluster_1368309489_1368309490_21263461_292766574_292766576_295122_595390728_595396840_595396852_616684899_33" function="internal">
        <lane id=":cluster_1368309489_1368309490_21263461_292766574_292766576_295122_595390728_595396840_595396852_616684899_33_0" index="0" allow="pedestrian bicycle" speed="2.78" length="39.17" width="2.00" shape="349.11,984.04 348.54,983.55 351.98,975.34 362.15,966.19 375.32,957.40"/>
    </edge>
    <edge id=":cluster_1368309489_1368309490_21263461_292766574_292766576_295122_595390728_595396840_595396852_616684899_34" function="internal">
        <lane id=":cluster_1368309489_1368309490_21263461_292766574_292766576_295122_595390728_595396840_595396852_616684899_34_0" index="0" allow="bicycle" speed="8.33" length="32.97" shape="355.74,987.42 355.79,986.93 360.92,981.53 369.54,974.15 380.27,965.66"/>
    </edge>
    <edge id=":cluster_1368309489_1368309490_21263461_292766574_292766576_295122_595390728_595396840_595396852_616684899_35" function="internal">
        <lane id=":cluster_1368309489_1368309490_21263461_292766574_292766576_295122_595390728_595396840_595396852_616684899_35_0" index="0" allow="pedestrian bicycle" speed="7.82" length="27.08" shape="355.74,987.42 356.38,980.53 359.59,975.96 365.17,975.79 373.12,980.01"/>
    </edge>
    <edge id=":cluster_1368309489_1368309490_21263461_292766574_292766576_295122_595390728_595396840_595396852_616684899_15" function="internal">
        <lane id=":cluster_1368309489_1368309490_21263461_292766574_292766576_295122_595390728_595396840_595396852_616684899_15_0" index="0" disallow="tram rail_urban rail rail_electric rail_fast ship" speed="13.89" length="48.98" shape="361.36,992.20 348.95,984.65 337.02,978.88 326.37,974.78 317.78,972.26"/>
        <lane id=":cluster_1368309489_1368309490_21263461_292766574_292766576_295122_595390728_595396840_595396852_616684899_15_1" index="1" disallow="tram rail_urban rail rail_electric rail_fast ship" speed="13.89" length="48.98" shape="363.61,989.86 350.97,982.19 338.53,976.16 327.36,971.80 318.54,969.15"/>
    </edge>
    <edge id=":cluster_1368309489_1368309490_21263461_292766574_292766576_295122_595390728_595396840_595396852_616684899_17" function="internal">
        <lane id=":cluster_1368309489_1368309490_21263461_292766574_292766576_295122_595390728_595396840_595396852_616684899_17_0" index="0" allow="pedestrian bicycle" speed="8.33" length="15.59" width="2.00" shape="365.87,987.53 359.13,979.92 359.42,974.50"/>
    </edge>
    <edge id=":cluster_1368309489_1368309490_21263461_292766574_292766576_295122_595390728_595396840_595396852_616684899_18" function="internal">
        <lane id=":cluster_1368309489_1368309490_21263461_292766574_292766576_295122_595390728_595396840_595396852_616684899_18_0" index="0" disallow="pedestrian tram rail_urban rail rail_electric rail_fast ship" speed="9.58" length="8.78" shape="368.12,985.19 366.16,981.57 368.05,977.31"/>
    </edge>
    <edge id=":cluster_1368309489_1368309490_21263461_292766574_292766576_295122_595390728_595396840_595396852_616684899_19" function="internal">
        <lane id=":cluster_1368309489_1368309490_21263461_292766574_292766576_295122_595390728_595396840_595396852_616684899_19_0" index="0" disallow="tram rail_urban rail rail_electric rail_fast ship" speed="4.97" length="10.07" shape="368.12,985.19 367.00,983.19 368.03,981.11 370.35,979.78 373.12,980.01"/>
    </edge>
    <edge id=":cluster_1368309489_1368309490_21263461_292766574_292766576_295122_595390728_595396840_595396852_616684899_20" function="internal">
        <lane id=":cluster_1368309489_1368309490_21263461_292766574_292766576_295122_595390728_595396840_595396852_616684899_20_0" index="0" allow="bicycle" speed="7.45" length="1.88" width="1.00" shape="368.74,984.28 368.36,982.44"/>
    </edge>
    <edge id=":cluster_1368309489_1368309490_21263461_292766574_292766576_295122_595390728_595396840_595396852_616684899_36" function="internal">
        <lane id=":cluster_1368309489_1368309490_21263461_292766574_292766576_295122_595390728_595396840_595396852_616684899_36_0" index="0" allow="pedestrian bicycle" speed="8.33" length="24.15" width="2.00" shape="359.42,974.50 359.54,972.17 365.48,964.56 375.32,957.40"/>
    </edge>
    <edge id=":cluster_1368309489_1368309490_21263461_292766574_292766576_295122_595390728_595396840_595396852_616684899_37" function="internal">
        <lane id=":cluster_1368309489_1368309490_21263461_292766574_292766576_295122_595390728_595396840_595396852_616684899_37_0" index="0" disallow="pedestrian tram rail_urban rail rail_electric rail_fast ship" speed="9.58" length="16.95" shape="368.05,977.31 368.24,976.88 373.29,971.46 380.27,965.66"/>
    </edge>
    <edge id=":cluster_1368309489_1368309490_21263461_292766574_292766576_295122_595390728_595396840_595396852_616684899_38" function="internal">
        <lane id=":cluster_1368309489_1368309490_21263461_292766574_292766576_295122_595390728_595396840_595396852_616684899_38_0" index="0" allow="bicycle" speed="7.45" length="23.84" width="1.00" shape="368.36,982.44 367.13,976.51 368.65,971.83 373.31,970.24 381.11,971.74"/>
    </edge>
    <edge id=":cluster_1368309489_1368309490_21263461_292766574_292766576_295122_595390728_595396840_595396852_616684899_21" function="internal">
        <lane id=":cluster_1368309489_1368309490_21263461_292766574_292766576_295122_595390728_595396840_595396852_616684899_21_0" index="0" allow="pedestrian bicycle" speed="8.33" length="53.78" width="2.00" shape="322.64,952.30 341.56,957.04 356.64,959.47 367.90,959.59 375.32,957.40"/>
    </edge>
    <edge id=":cluster_1368309489_1368309490_21263461_292766574_292766576_295122_595390728_595396840_595396852_616684899_22" function="internal">
        <lane id=":cluster_1368309489_1368309490_21263461_292766574_292766576_295122_595390728_595396840_595396852_616684899_22_0" index="0" disallow="pedestrian tram rail_urban rail rail_electric rail_fast ship" speed="13.89" length="55.55" shape="322.64,952.30 343.73,957.79 359.81,960.93 370.89,961.71 376.95,960.14"/>
    </edge>
    <edge id=":cluster_1368309489_1368309490_21263461_292766574_292766576_295122_595390728_595396840_595396852_616684899_23" function="internal">
        <lane id=":cluster_1368309489_1368309490_21263461_292766574_292766576_295122_595390728_595396840_595396852_616684899_23_0" index="0" allow="bicycle" speed="11.11" length="61.45" width="1.00" shape="322.18,954.35 338.89,959.03 357.20,964.21 372.74,968.80 381.11,971.74"/>
    </edge>
    <edge id=":cluster_1368309489_1368309490_21263461_292766574_292766576_295122_595390728_595396840_595396852_616684899_24" function="internal">
        <lane id=":cluster_1368309489_1368309490_21263461_292766574_292766576_295122_595390728_595396840_595396852_616684899_24_0" index="0" disallow="tram rail_urban rail rail_electric rail_fast ship" speed="13.89" length="58.28" shape="321.13,958.52 336.20,962.51 351.61,966.46 365.95,970.60 377.81,975.15"/>
        <lane id=":cluster_1368309489_1368309490_21263461_292766574_292766576_295122_595390728_595396840_595396852_616684899_24_1" index="1" disallow="tram rail_urban rail rail_electric rail_fast ship" speed="13.89" length="58.28" shape="320.37,961.63 335.19,965.51 350.06,969.23 363.85,973.13 375.47,977.58"/>
    </edge>
    <edge id=":cluster_1493218272_21263460_254082326_398714_0" function="internal">
        <lane id=":cluster_1493218272_21263460_254082326_398714_0_0" index="0" allow="pedestrian bicycle" speed="5.56" length="14.92" shape="397.36,1021.69 392.88,1018.09 389.24,1016.03 386.46,1015.49 384.54,1016.49"/>
    </edge>
    <edge id=":cluster_1493218272_21263460_254082326_398714_1" function="internal">
        <lane id=":cluster_1493218272_21263460_254082326_398714_1_0" index="0" allow="pedestrian bicycle" speed="2.78" length="25.45" width="2.00" shape="397.36,1021.69 393.26,1018.20 387.59,1013.54 381.85,1008.95 377.59,1005.66"/>
    </edge>
    <edge id=":cluster_1493218272_21263460_254082326_398714_2" function="internal">
        <lane id=":cluster_1493218272_21263460_254082326_398714_2_0" index="0" disallow="pedestrian tram rail_urban rail rail_electric rail_fast ship" speed="8.84" length="15.76" shape="398.94,1019.35 393.96,1016.55 389.90,1015.14 386.76,1015.12 384.54,1016.49"/>
    </edge>
    <edge id=":cluster_1493218272_21263460_254082326_398714_3" function="internal">
        <lane id=":cluster_1493218272_21263460_254082326_398714_3_0" index="0" allow="bicycle" speed="8.33" length="25.36" width="2.00" shape="398.94,1019.35 377.59,1005.66"/>
    </edge>
    <edge id=":cluster_1493218272_21263460_254082326_398714_4" function="internal">
        <lane id=":cluster_1493218272_21263460_254082326_398714_4_0" index="0" disallow="pedestrian tram rail_urban rail rail_electric rail_fast ship" speed="13.89" length="28.61" shape="400.48,1016.54 375.25,1001.70"/>
        <lane id=":cluster_1493218272_21263460_254082326_398714_4_1" index="1" disallow="pedestrian tram rail_urban rail rail_electric rail_fast ship" speed="13.89" length="28.61" shape="402.02,1013.72 377.16,999.13"/>
        <lane id=":cluster_1493218272_21263460_254082326_398714_4_2" index="2" disallow="pedestrian tram rail_urban rail rail_electric rail_fast ship" speed="13.89" length="28.61" shape="403.57,1010.91 379.08,996.56"/>
        <lane id=":cluster_1493218272_21263460_254082326_398714_4_3" index="3" disallow="pedestrian tram rail_urban rail rail_electric rail_fast ship" speed="13.89" length="28.61" shape="405.11,1008.10 380.99,993.99"/>
    </edge>
    <edge id=":cluster_1493218272_21263460_254082326_398714_8" function="internal">