<?xml version="1.0" encoding="UTF-8"?>

<!-- generated on 2022-05-06 16:10:25 by Eclipse SUMO duarouter Version 1.13.0
<configuration xmlns:xsi="http://www.w3.org/2001/XMLSchema-instance" xsi:noNamespaceSchemaLocation="http://sumo.dlr.de/xsd/duarouterConfiguration.xsd">

    <input>
        <net-file value="isartor.net.xml"/>
        <route-files value="sc2_30_y.trips.xml"/>
    </input>

    <output>
        <output-file value="sc2_30_y.rou.xml"/>
        <alternatives-output value="sc2_30_y.rou.alt.xml"/>
    </output>

    <report>
        <ignore-errors value="true"/>
    </report>

</configuration>
-->

<routes xmlns:xsi="http://www.w3.org/2001/XMLSchema-instance" xsi:noNamespaceSchemaLocation="http://sumo.dlr.de/xsd/routes_file.xsd">
    <vType id="pedType1" maxSpeed="1.40" speedFactor="normc(1.00,0.19,0.14,1.43)"/>
    <person id="0" type="pedType1" depart="0.00">
        <walk edges="350848860#0 350848860#1 102604795#0"/>
    </person>
    <person id="1" type="pedType1" depart="0.50">
        <walk edges="292199760#1 292199787 333557760#5 333557760#6 318701729 292199767 292199761 292199773 49612669#1 49612670#1 49612670#2 49612670#3 402461453#1 402461453#0 402461429 402461444#1 402461451#1 23374338#0"/>
    </person>
    <person id="2" type="pedType1" depart="1.00">
        <walk edges="402461437 402461451#1 436996282#0 350848860#5 350848860#4"/>
    </person>
    <person id="3" type="pedType1" depart="1.50">
        <walk edges="49612670#2 49612670#3 402461453#1 402461453#0 402461429 402461444#1 402461451#1 436996282#0 143927075"/>
    </person>
    <person id="4" type="pedType1" depart="2.00">
        <walk edges="32209559 402461451#1 402461444#1 402461429 402461453#0 402461453#1 102604795#1"/>
    </person>
    <person id="5" type="pedType1" depart="2.50">
        <walk edges="23374338#0 402461451#1 402461444#1 402461429 402461453#0 402461453#1 49612670#3 49612670#2 49612670#1 49612669#1 292199773 292199761 292199767 318701729 333557760#0"/>
    </person>
    <person id="6" type="pedType1" depart="3.00">
        <walk edges="102604795#0 143927075 176214336#1 22976674#0 22976674#1 239585951 22976688"/>
    </person>
    <person id="7" type="pedType1" depart="3.50">
        <walk edges="350848860#1 49612670#0 49612669#1 292199773 292199761 292199767 318701729 333557760#6 333552112#1 333552112#0 333557760#3 333557760#4"/>
    </person>
    <person id="8" type="pedType1" depart="4.00">
        <walk edges="23374338#0 -23374338#0 176214336#0 22976674#0 22976674#1 239585951 22976688 333552125 333557760#2 333552112#0 333552123#1 333573809"/>
    </person>
    <person id="9" type="pedType1" depart="4.50">
        <walk edges="436996282#0 -23374338#0"/>
    </person>
    <person id="10" type="pedType1" depart="5.00">
        <walk edges="402461453#1 402461453#0 402461429 402461444#1 402461451#1 436996282#0 350873890#0"/>
    </person>
    <person id="11" type="pedType1" depart="5.50">
        <walk edges="292199773 49612669#1 49612670#0 350848860#1 143927075 176214336#1 22976674#0 22976674#1"/>
    </person>
    <person id="12" type="pedType1" depart="6.00">
        <walk edges="863384658 863383155#1 176214336#0 22976674#0 22976674#1 239585951 22976688 292199762 292199772"/>
    </person>
    <person id="13" type="pedType1" depart="6.50">
        <walk edges="143927076"/>
    </person>
    <person id="14" type="pedType1" depart="7.00">
        <walk edges="49612669#2 49612669#1 292199773 292199761 292199767 318701729 333557760#6 333552112#1 333552123#1 333573809 292199768 336063691"/>
    </person>
    <person id="15" type="pedType1" depart="7.50">
        <walk edges="436996282#0 402461451#1 402461437"/>
    </person>
    <person id="16" type="pedType1" depart="8.00">
        <walk edges="333557760#3 333557760#2 333552125 22976688 239585951 22976674#1 22976674#0 176214336#0 -23374338#0 966283235"/>
    </person>
    <person id="17" type="pedType1" depart="8.50">
        <walk edges="292199787 333557760#4"/>
    </person>
    <person id="18" type="pedType1" depart="9.00">
        <walk edges="49612669#0 22976676 22976679 318701729 333557760#6 333552112#1 333552123#1 333573809 292199768 336063691 399409986 336063690 399409980 336063695#0"/>
    </person>
    <person id="19" type="pedType1" depart="9.50">
        <walk edges="49612669#3 49612669#2 49612669#1 292199773 292199761 292199767 318701729 333557760#6 333552112#1 333552123#1 333573808"/>
    </person>
    <person id="20" type="pedType1" depart="10.00">
        <walk edges="399409980 336063690 399409986 336063691 292199768 333573809 333552123#1 333552112#1 333557760#6 318701729 292199767 292199761 292199773 49612669#1 49612670#1 49612670#2 863383154#0 102604795#2"/>
    </person>
    <person id="21" type="pedType1" depart="10.50">
        <walk edges="23374338#1 -23374338#0 402461451#1 402461444#1 402461429 402461453#0 402461453#1 49612670#3 49612670#2 49612670#1 49612669#1 292199773 292199761"/>
    </person>
    <person id="22" type="pedType1" depart="11.00">
        <walk edges="143927075 176214336#1 176214336#0 23374338#1"/>
    </person>
    <person id="23" type="pedType1" depart="11.50">
        <walk edges="144060053#0 144060053#1 292199781 966355957 292199760#0 292199760#1"/>
    </person>
    <person id="24" type="pedType1" depart="12.00">
        <walk edges="350848860#0 49612670#0 49612669#1 292199773 292199761 292199767 318701729 333557760#6 333557760#5 292199787 292199760#0 966355957 292199781"/>
    </person>
    <person id="25" type="pedType1" depart="12.50">
        <walk edges="292199787 333557760#5 333552112#1 333552123#1 333552123#2 292199779 333552121#0 333552121#1 22976694"/>
    </person>
    <person id="26" type="pedType1" depart="13.00">
        <walk edges="292199760#0 292199787 333557760#5 333552112#1 333552123#0 333557760#1 333552125 22976688 239585951 22976674#1 22976674#0 176214336#0 863383155#1 863383155#0"/>
    </person>
    <person id="27" type="pedType1" depart="13.50">
        <walk edges="350848860#1 49612670#0 49612669#1 292199773 292199761 292199767 318701729 333557760#6 333552112#1 333552123#1 333573809 292199768 336063691"/>
    </person>
    <person id="28" type="pedType1" depart="14.00">
        <walk edges="22976676 49612669#0 49612669#1 49612670#1 49612670#2 49612670#3 402461453#1 402461453#0 402461429 402461444#1 402461437"/>
    </person>
    <person id="29" type="pedType1" depart="14.50">
        <walk edges="22976674#1 239585951 22976688 333552125 333557760#2 333552112#0 333552123#1 333552123#2 292199779 333552121#0 292199790#0"/>
    </person>
</routes>
