<?xml version="1.0" encoding="UTF-8"?>
<routes xmlns:xsi="http://www.w3.org/2001/XMLSchema-instance" xsi:noNamespaceSchemaLocation="http://sumo.dlr.de/xsd/routes_file.xsd">
<vType id="ped_pedestrian" vClass="pedestrian"/>
<vType id="car_vh" accel="0.8" decel="4.5" sigma="0.5" length="5" maxSpeed="14"/>
<person id="ped0" depart="0.00" type="ped_pedestrian">
<walk from="-19683210#1" to="19683397#5"/>
</person>
<vehicle id="veh0" type="car_vh" depart="0.00534">
<route edges="376107908#0 376107908#1 88714905#1 88714905#3 19682357#1"/>
</vehicle>
<person id="ped1" depart="0.01" type="ped_pedestrian">
<walk from="364097598#0" to="-19683210#1"/>
</person>
<vehicle id="veh1" type="car_vh" depart="0.01564">
<route edges="376107908#0 376107908#1 88714905#1 88714905#3 19682357#1"/>
</vehicle>
<person id="ped2" depart="0.02" type="ped_pedestrian">
<walk from="19683397#5" to="82790717#0"/>
</person>
<vehicle id="veh2" type="car_vh" depart="0.02546">
<route edges="-88714905#7 -88714905#3 -88714905#2 -26632541#3"/>
</vehicle>
<person id="ped3" depart="0.03" type="ped_pedestrian">
<walk from="19683871#3" to="-82790717#4"/>
</person>
<vehicle id="veh3" type="car_vh" depart="0.03527">
<route edges="376107908#0 376107908#1 88714905#1 88714905#3 19682357#1"/>
</vehicle>
<person id="ped4" depart="0.04" type="ped_pedestrian">
<walk from="19683210#1" to="559194509#0"/>
</person>
<vehicle id="veh4" type="car_vh" depart="0.04592">
<route edges="-88714905#7 -88714905#3 -88714905#2 -26632541#3"/>
</vehicle>
<person id="ped5" depart="0.05" type="ped_pedestrian">
<walk from="82790717#0" to="82790717#0"/>
</person>
<vehicle id="veh5" type="car_vh" depart="0.05596">
<route edges="376107908#0 376107908#1 88714905#1 88714905#3 19682357#1"/>
</vehicle>
<person id="ped6" depart="0.06" type="ped_pedestrian">
<walk from="19683397#5" to="19683871#3"/>
</person>
<vehicle id="veh6" type="car_vh" depart="0.06518">
<route edges="-88714905#7 -88714905#3 -88714905#2 -26632541#3"/>
</vehicle>
<person id="ped7" depart="0.07" type="ped_pedestrian">
<walk from="559194509#0" to="82790717#0"/>
</person>
<vehicle id="veh7" type="car_vh" depart="0.07538">
<route edges="-88714905#7 -88714905#3 -88714905#2 -26632541#3"/>
</vehicle>
<person id="ped8" depart="0.08" type="ped_pedestrian">
<walk from="19683871#3" to="-82790717#4"/>
</person>
<vehicle id="veh8" type="car_vh" depart="0.08541">
<route edges="-88714905#7 -88714905#3 -88714905#2 -26632541#3"/>
</vehicle>
<person id="ped9" depart="0.09" type="ped_pedestrian">
<walk from="-82790717#4" to="82790717#0"/>
</person>
<vehicle id="veh9" type="car_vh" depart="0.09576">
<route edges="-88714905#7 -88714905#3 -88714905#2 -26632541#3"/>
</vehicle>
<person id="ped10" depart="0.10" type="ped_pedestrian">
<walk from="19683798#3" to="-82790717#4"/>
</person>
<vehicle id="veh10" type="car_vh" depart="0.10562">
<route edges="-88714905#7 -88714905#3 -88714905#2 -26632541#3"/>
</vehicle>
<person id="ped11" depart="0.11" type="ped_pedestrian">
<walk from="364097598#0" to="559194509#0"/>
</person>
<vehicle id="veh11" type="car_vh" depart="0.11565">
<route edges="-88714905#7 -88714905#3 -88714905#2 -26632541#3"/>
</vehicle>
<person id="ped12" depart="0.12" type="ped_pedestrian">
<walk from="82790717#0" to="-19683210#1"/>
</person>
<vehicle id="veh12" type="car_vh" depart="0.12526">
<route edges="376107908#0 376107908#1 88714905#1 88714905#3 19682357#1"/>
</vehicle>
<person id="ped13" depart="0.13" type="ped_pedestrian">
<walk from="364097598#0" to="19683397#5"/>
</person>
<vehicle id="veh13" type="car_vh" depart="0.13537">
<route edges="-88714905#7 -88714905#3 -88714905#2 -26632541#3"/>
</vehicle>
<person id="ped14" depart="0.14" type="ped_pedestrian">
<walk from="82790717#0" to="82790717#0"/>
</person>
<vehicle id="veh14" type="car_vh" depart="0.14594">
<route edges="-88714905#7 -88714905#3 -88714905#2 -26632541#3"/>
</vehicle>
<person id="ped15" depart="0.15" type="ped_pedestrian">
<walk from="82790717#0" to="19683798#3"/>
</person>
<vehicle id="veh15" type="car_vh" depart="0.15541">
<route edges="-88714905#7 -88714905#3 -88714905#2 -26632541#3"/>
</vehicle>
<person id="ped16" depart="0.16" type="ped_pedestrian">
<walk from="19683871#3" to="559194509#0"/>
</person>
<vehicle id="veh16" type="car_vh" depart="0.16593">
<route edges="-88714905#7 -88714905#3 -88714905#2 -26632541#3"/>
</vehicle>
<person id="ped17" depart="0.17" type="ped_pedestrian">
<walk from="19683210#1" to="19683798#3"/>
</person>
<vehicle id="veh17" type="car_vh" depart="0.17515">
<route edges="376107908#0 376107908#1 88714905#1 88714905#3 19682357#1"/>
</vehicle>
<person id="ped18" depart="0.18" type="ped_pedestrian">
<walk from="-19683210#1" to="19683397#5"/>
</person>
<vehicle id="veh18" type="car_vh" depart="0.18546">
<route edges="376107908#0 376107908#1 88714905#1 88714905#3 19682357#1"/>
</vehicle>
<person id="ped19" depart="0.19" type="ped_pedestrian">
<walk from="19683397#5" to="559194509#0"/>
</person>
<vehicle id="veh19" type="car_vh" depart="0.19510">
<route edges="-88714905#7 -88714905#3 -88714905#2 -26632541#3"/>
</vehicle>
<person id="ped20" depart="0.20" type="ped_pedestrian">
<walk from="19683871#3" to="19683210#1"/>
</person>
<vehicle id="veh20" type="car_vh" depart="0.20532">
<route edges="376107908#0 376107908#1 88714905#1 88714905#3 19682357#1"/>
</vehicle>
<person id="ped21" depart="0.21" type="ped_pedestrian">
<walk from="19683397#5" to="19683397#5"/>
</person>
<vehicle id="veh21" type="car_vh" depart="0.21521">
<route edges="-88714905#7 -88714905#3 -88714905#2 -26632541#3"/>
</vehicle>
<person id="ped22" depart="0.22" type="ped_pedestrian">
<walk from="19683210#1" to="559194509#0"/>
</person>
<vehicle id="veh22" type="car_vh" depart="0.22524">
<route edges="-88714905#7 -88714905#3 -88714905#2 -26632541#3"/>
</vehicle>
<person id="ped23" depart="0.23" type="ped_pedestrian">
<walk from="19683210#1" to="19683397#5"/>
</person>
<vehicle id="veh23" type="car_vh" depart="0.23536">
<route edges="-88714905#7 -88714905#3 -88714905#2 -26632541#3"/>
</vehicle>
<person id="ped24" depart="0.24" type="ped_pedestrian">
<walk from="19683397#5" to="-82790717#4"/>
</person>
<vehicle id="veh24" type="car_vh" depart="0.24592">
<route edges="376107908#0 376107908#1 88714905#1 88714905#3 19682357#1"/>
</vehicle>
<person id="ped25" depart="0.25" type="ped_pedestrian">
<walk from="19683871#3" to="-82790717#4"/>
</person>
<vehicle id="veh25" type="car_vh" depart="0.25581">
<route edges="-88714905#7 -88714905#3 -88714905#2 -26632541#3"/>
</vehicle>
<person id="ped26" depart="0.26" type="ped_pedestrian">
<walk from="559194509#0" to="19683871#3"/>
</person>
<vehicle id="veh26" type="car_vh" depart="0.26540">
<route edges="376107908#0 376107908#1 88714905#1 88714905#3 19682357#1"/>
</vehicle>
<person id="ped27" depart="0.27" type="ped_pedestrian">
<walk from="19683798#3" to="19683871#3"/>
</person>
<vehicle id="veh27" type="car_vh" depart="0.27567">
<route edges="-88714905#7 -88714905#3 -88714905#2 -26632541#3"/>
</vehicle>
<person id="ped28" depart="0.28" type="ped_pedestrian">
<walk from="364097598#0" to="19683871#3"/>
</person>
<vehicle id="veh28" type="car_vh" depart="0.28590">
<route edges="376107908#0 376107908#1 88714905#1 88714905#3 19682357#1"/>
</vehicle>
<person id="ped29" depart="0.29" type="ped_pedestrian">
<walk from="19683397#5" to="19683397#5"/>
</person>
<vehicle id="veh29" type="car_vh" depart="0.29592">
<route edges="376107908#0 376107908#1 88714905#1 88714905#3 19682357#1"/>
</vehicle>
<person id="ped30" depart="0.30" type="ped_pedestrian">
<walk from="-19683210#1" to="19683871#3"/>
</person>
<vehicle id="veh30" type="car_vh" depart="0.30576">
<route edges="376107908#0 376107908#1 88714905#1 88714905#3 19682357#1"/>
</vehicle>
<person id="ped31" depart="0.31" type="ped_pedestrian">
<walk from="-82790717#4" to="364097598#0"/>
</person>
<vehicle id="veh31" type="car_vh" depart="0.31579">
<route edges="376107908#0 376107908#1 88714905#1 88714905#3 19682357#1"/>
</vehicle>
<person id="ped32" depart="0.32" type="ped_pedestrian">
<walk from="559194509#0" to="19683210#1"/>
</person>
<vehicle id="veh32" type="car_vh" depart="0.32525">
<route edges="376107908#0 376107908#1 88714905#1 88714905#3 19682357#1"/>
</vehicle>
<person id="ped33" depart="0.33" type="ped_pedestrian">
<walk from="-82790717#4" to="364097598#0"/>
</person>
<vehicle id="veh33" type="car_vh" depart="0.33592">
<route edges="-88714905#7 -88714905#3 -88714905#2 -26632541#3"/>
</vehicle>
<person id="ped34" depart="0.34" type="ped_pedestrian">
<walk from="82790717#0" to="19683397#5"/>
</person>
<vehicle id="veh34" type="car_vh" depart="0.34538">
<route edges="-88714905#7 -88714905#3 -88714905#2 -26632541#3"/>
</vehicle>
<person id="ped35" depart="0.35" type="ped_pedestrian">
<walk from="19683798#3" to="19683210#1"/>
</person>
<vehicle id="veh35" type="car_vh" depart="0.35597">
<route edges="376107908#0 376107908#1 88714905#1 88714905#3 19682357#1"/>
</vehicle>
<person id="ped36" depart="0.36" type="ped_pedestrian">
<walk from="-19683210#1" to="19683871#3"/>
</person>
<vehicle id="veh36" type="car_vh" depart="0.36545">
<route edges="376107908#0 376107908#1 88714905#1 88714905#3 19682357#1"/>
</vehicle>
<person id="ped37" depart="0.37" type="ped_pedestrian">
<walk from="19683397#5" to="-82790717#4"/>
</person>
<vehicle id="veh37" type="car_vh" depart="0.3754">
<route edges="-88714905#7 -88714905#3 -88714905#2 -26632541#3"/>
</vehicle>
<person id="ped38" depart="0.38" type="ped_pedestrian">
<walk from="19683397#5" to="19683871#3"/>
</person>
<vehicle id="veh38" type="car_vh" depart="0.38527">
<route edges="-88714905#7 -88714905#3 -88714905#2 -26632541#3"/>
</vehicle>
<person id="ped39" depart="0.39" type="ped_pedestrian">
<walk from="19683397#5" to="19683397#5"/>
</person>
<vehicle id="veh39" type="car_vh" depart="0.3955">
<route edges="-88714905#7 -88714905#3 -88714905#2 -26632541#3"/>
</vehicle>
<person id="ped40" depart="0.40" type="ped_pedestrian">
<walk from="19683798#3" to="-19683210#1"/>
</person>
<vehicle id="veh40" type="car_vh" depart="0.40519">
<route edges="-88714905#7 -88714905#3 -88714905#2 -26632541#3"/>
</vehicle>
<person id="ped41" depart="0.41" type="ped_pedestrian">
<walk from="364097598#0" to="559194509#0"/>
</person>
<vehicle id="veh41" type="car_vh" depart="0.4151">
<route edges="-88714905#7 -88714905#3 -88714905#2 -26632541#3"/>
</vehicle>
<person id="ped42" depart="0.42" type="ped_pedestrian">
<walk from="364097598#0" to="19683397#5"/>
</person>
<vehicle id="veh42" type="car_vh" depart="0.42578">
<route edges="376107908#0 376107908#1 88714905#1 88714905#3 19682357#1"/>
</vehicle>
<person id="ped43" depart="0.43" type="ped_pedestrian">
<walk from="19683397#5" to="19683397#5"/>
</person>
<vehicle id="veh43" type="car_vh" depart="0.4359">
<route edges="-88714905#7 -88714905#3 -88714905#2 -26632541#3"/>
</vehicle>
<person id="ped44" depart="0.44" type="ped_pedestrian">
<walk from="-82790717#4" to="82790717#0"/>
</person>
<vehicle id="veh44" type="car_vh" depart="0.44549">
<route edges="376107908#0 376107908#1 88714905#1 88714905#3 19682357#1"/>
</vehicle>
<person id="ped45" depart="0.45" type="ped_pedestrian">
<walk from="-82790717#4" to="-82790717#4"/>
</person>
<vehicle id="veh45" type="car_vh" depart="0.4557">
<route edges="-88714905#7 -88714905#3 -88714905#2 -26632541#3"/>
</vehicle>
<person id="ped46" depart="0.46" type="ped_pedestrian">
<walk from="82790717#0" to="19683397#5"/>
</person>
<vehicle id="veh46" type="car_vh" depart="0.46551">
<route edges="-88714905#7 -88714905#3 -88714905#2 -26632541#3"/>
</vehicle>
<person id="ped47" depart="0.47" type="ped_pedestrian">
<walk from="-82790717#4" to="19683397#5"/>
</person>
<vehicle id="veh47" type="car_vh" depart="0.47545">
<route edges="376107908#0 376107908#1 88714905#1 88714905#3 19682357#1"/>
</vehicle>
<person id="ped48" depart="0.48" type="ped_pedestrian">
<walk from="364097598#0" to="19683871#3"/>
</person>
<vehicle id="veh48" type="car_vh" depart="0.48534">
<route edges="376107908#0 376107908#1 88714905#1 88714905#3 19682357#1"/>
</vehicle>
<person id="ped49" depart="0.49" type="ped_pedestrian">
<walk from="82790717#0" to="19683397#5"/>
</person>
<vehicle id="veh49" type="car_vh" depart="0.49571">
<route edges="-88714905#7 -88714905#3 -88714905#2 -26632541#3"/>
</vehicle>
</routes>
