<?xml version="1.0" encoding="UTF-8"?>

<!-- generated on 2022-03-31 12:13:18 by Eclipse SUMO netconvert Version 1.12.0
<configuration xmlns:xsi="http://www.w3.org/2001/XMLSchema-instance" xsi:noNamespaceSchemaLocation="http://sumo.dlr.de/xsd/netconvertConfiguration.xsd">

    <input>
        <type-files value="/usr/share/sumo/data/typemap/osmNetconvert.typ.xml,/usr/share/sumo/data/typemap/osmNetconvertUrbanDe.typ.xml,/usr/share/sumo/data/typemap/osmNetconvertPedestrians.typ.xml"/>
        <osm-files value="osm_bbox.osm.xml"/>
    </input>

    <output>
        <output-file value="osm.net.xml"/>
        <output.street-names value="true"/>
        <output.original-names value="true"/>
    </output>

    <projection>
        <proj.utm value="true"/>
    </projection>

    <processing>
        <geometry.remove value="true"/>
        <roundabouts.guess value="true"/>
    </processing>

    <tls_building>
        <tls.discard-simple value="true"/>
        <tls.join value="true"/>
        <tls.guess-signals value="true"/>
        <tls.default-type value="actuated"/>
    </tls_building>

    <ramp_guessing>
        <ramps.guess value="true"/>
    </ramp_guessing>

    <junctions>
        <junctions.join value="true"/>
        <junctions.corner-detail value="5"/>
    </junctions>

    <pedestrian>
        <crossings.guess value="true"/>
    </pedestrian>

    <formats>
        <osm.sidewalks value="true"/>
    </formats>

    <report>
        <verbose value="true"/>
        <aggregate-warnings value="5"/>
    </report>

</configuration>
-->

<net version="1.9" junctionCornerDetail="5" walkingareas="true" limitTurnSpeed="5.50" xmlns:xsi="http://www.w3.org/2001/XMLSchema-instance" xsi:noNamespaceSchemaLocation="http://sumo.dlr.de/xsd/net_file.xsd">

    <location netOffset="-690634.03,-5335533.48" convBoundary="0.00,0.00,733.96,3065.24" origBoundary="11.562828,48.144460,11.573824,48.171918" projParameter="+proj=utm +zone=32 +ellps=WGS84 +datum=WGS84 +units=m +no_defs"/>

    <type id="highway.bridleway" priority="1" numLanes="1" speed="2.78" allow="pedestrian" oneway="1" width="2.00"/>
    <type id="highway.bus_guideway" priority="1" numLanes="1" speed="13.89" allow="bus" oneway="1"/>
    <type id="highway.cycleway" priority="1" numLanes="1" speed="8.33" allow="bicycle" oneway="0" width="1.00"/>
    <type id="highway.footway" priority="1" numLanes="1" speed="2.78" allow="pedestrian" oneway="1" width="2.00"/>
    <type id="highway.ford" priority="1" numLanes="1" speed="2.78" allow="army" oneway="0"/>
    <type id="highway.living_street" priority="2" numLanes="1" speed="2.78" disallow="tram rail_urban rail rail_electric rail_fast ship" oneway="0"/>
    <type id="highway.motorway" priority="14" numLanes="2" speed="27.78" allow="private emergency authority army vip passenger hov taxi bus coach delivery truck trailer motorcycle evehicle custom1 custom2" oneway="1"/>
    <type id="highway.motorway_link" priority="9" numLanes="1" speed="16.67" allow="private emergency authority army vip passenger hov taxi bus coach delivery truck trailer motorcycle evehicle custom1 custom2" oneway="1"/>
    <type id="highway.path" priority="1" numLanes="1" speed="2.78" allow="pedestrian bicycle" oneway="0" width="2.00"/>
    <type id="highway.pedestrian" priority="1" numLanes="1" speed="2.78" allow="pedestrian" oneway="1" width="2.00"/>
    <type id="highway.primary" priority="12" numLanes="2" speed="13.89" disallow="pedestrian tram rail_urban rail rail_electric rail_fast ship" oneway="0" sidewalkWidth="3.00"/>
    <type id="highway.primary_link" priority="7" numLanes="1" speed="13.89" disallow="pedestrian tram rail_urban rail rail_electric rail_fast ship" oneway="0" sidewalkWidth="3.00"/>
    <type id="highway.raceway" priority="15" numLanes="2" speed="83.33" allow="vip" oneway="0"/>
    <type id="highway.residential" priority="3" numLanes="1" speed="13.89" disallow="pedestrian tram rail_urban rail rail_electric rail_fast ship" oneway="0" sidewalkWidth="2.00"/>
    <type id="highway.secondary" priority="11" numLanes="1" speed="13.89" disallow="pedestrian tram rail_urban rail rail_electric rail_fast ship" oneway="0" sidewalkWidth="3.00"/>
    <type id="highway.secondary_link" priority="6" numLanes="1" speed="13.89" disallow="pedestrian tram rail_urban rail rail_electric rail_fast ship" oneway="0" sidewalkWidth="3.00"/>
    <type id="highway.service" priority="1" numLanes="1" speed="5.56" allow="pedestrian delivery bicycle" oneway="0"/>
    <type id="highway.stairs" priority="1" numLanes="1" speed="1.39" allow="pedestrian" oneway="1" width="2.00"/>
    <type id="highway.step" priority="1" numLanes="1" speed="1.39" allow="pedestrian" oneway="1" width="2.00"/>
    <type id="highway.steps" priority="1" numLanes="1" speed="1.39" allow="pedestrian" oneway="1" width="2.00"/>
    <type id="highway.tertiary" priority="10" numLanes="1" speed="13.89" disallow="pedestrian tram rail_urban rail rail_electric rail_fast ship" oneway="0" sidewalkWidth="3.00"/>
    <type id="highway.tertiary_link" priority="5" numLanes="1" speed="13.89" disallow="pedestrian tram rail_urban rail rail_electric rail_fast ship" oneway="0" sidewalkWidth="2.00"/>
    <type id="highway.track" priority="1" numLanes="1" speed="5.56" allow="pedestrian motorcycle moped bicycle" oneway="0"/>
    <type id="highway.trunk" priority="13" numLanes="2" speed="13.89" disallow="pedestrian bicycle tram rail_urban rail rail_electric rail_fast ship" oneway="0"/>
    <type id="highway.trunk_link" priority="8" numLanes="1" speed="13.89" disallow="pedestrian bicycle tram rail_urban rail rail_electric rail_fast ship" oneway="0"/>
    <type id="highway.unclassified" priority="4" numLanes="1" speed="13.89" disallow="pedestrian tram rail_urban rail rail_electric rail_fast ship" oneway="0" sidewalkWidth="2.00"/>
    <type id="highway.unsurfaced" priority="1" numLanes="1" speed="8.33" disallow="tram rail_urban rail rail_electric rail_fast ship" oneway="0"/>
    <type id="railway.highspeed" priority="21" numLanes="1" speed="69.44" allow="rail_fast" oneway="1"/>
    <type id="railway.light_rail" priority="19" numLanes="1" speed="27.78" allow="rail_urban" oneway="1"/>
    <type id="railway.preserved" priority="16" numLanes="1" speed="27.78" allow="rail" oneway="1"/>
    <type id="railway.rail" priority="20" numLanes="1" speed="44.44" allow="rail" oneway="1"/>
    <type id="railway.subway" priority="18" numLanes="1" speed="27.78" allow="rail_urban" oneway="1"/>
    <type id="railway.tram" priority="17" numLanes="1" speed="13.89" allow="tram" oneway="1"/>

    <edge id=":1014461938_0" function="internal">
        <lane id=":1014461938_0_0" index="0" disallow="pedestrian tram rail_urban rail rail_electric rail_fast ship" speed="3.65" length="4.67" shape="71.23,2443.40 70.02,2442.62 69.60,2441.83 69.98,2441.02 71.17,2440.20"/>
    </edge>
    <edge id=":1014461938_w0" function="walkingarea">
        <lane id=":1014461938_w0_0" index="0" allow="pedestrian" speed="1.00" length="8.40" width="2.00" shape="71.13,2438.60 71.09,2436.60 71.31,2447.00 71.27,2445.00"/>
    </edge>
    <edge id=":1163510027_0" function="internal">
        <lane id=":1163510027_0_0" index="0" allow="delivery bicycle" speed="5.78" length="6.79" shape="641.84,2368.76 641.36,2367.48 640.28,2366.63 638.59,2366.21 636.28,2366.24"/>
    </edge>
    <edge id=":1163510027_1" function="internal">
        <lane id=":1163510027_1_0" index="0" disallow="pedestrian tram rail_urban rail rail_electric rail_fast ship" speed="8.33" length="9.44" shape="641.84,2368.76 640.73,2359.39"/>
    </edge>
    <edge id=":1163510027_2" function="internal">
        <lane id=":1163510027_2_0" index="0" disallow="pedestrian tram rail_urban rail rail_electric rail_fast ship" speed="8.33" length="9.47" shape="643.90,2359.00 645.02,2368.40"/>
    </edge>
    <edge id=":1163510027_3" function="internal">
        <lane id=":1163510027_3_0" index="0" allow="delivery bicycle" speed="6.95" length="3.05" shape="643.90,2359.00 643.73,2361.87 643.64,2362.01"/>
    </edge>
    <edge id=":1163510027_7" function="internal">
        <lane id=":1163510027_7_0" index="0" allow="delivery bicycle" speed="6.95" length="8.96" shape="643.64,2362.01 642.40,2364.04 639.92,2365.49 636.28,2366.24"/>
    </edge>
    <edge id=":1163510027_4" function="internal">
        <lane id=":1163510027_4_0" index="0" allow="delivery bicycle" speed="5.67" length="6.76" shape="635.99,2363.05 638.21,2362.64 639.74,2361.90 640.58,2360.81 640.73,2359.39"/>
    </edge>
    <edge id=":1163510027_5" function="internal">
        <lane id=":1163510027_5_0" index="0" allow="delivery bicycle" speed="6.95" length="11.84" shape="635.99,2363.05 639.68,2363.10 642.42,2364.01 644.20,2365.77 645.02,2368.40"/>
    </edge>
    <edge id=":1163510027_6" function="internal">
        <lane id=":1163510027_6_0" index="0" allow="pedestrian delivery bicycle" speed="3.65" length="4.67" shape="635.99,2363.05 637.26,2363.74 637.73,2364.50 637.40,2365.33 636.28,2366.24"/>
    </edge>
    <edge id=":1163510027_c0" function="crossing" crossingEdges="39380980#1 -39380980#1">
        <lane id=":1163510027_c0_0" index="0" allow="pedestrian" speed="1.00" length="6.40" width="4.00" shape="646.38,2366.24 640.02,2366.96"/>
    </edge>
    <edge id=":1163510027_w0" function="walkingarea">
        <lane id=":1163510027_w0_0" index="0" allow="pedestrian" speed="1.00" length="5.35" width="4.00" shape="639.14,2359.58 637.16,2359.83 635.85,2361.46 636.14,2364.64 636.14,2364.64 636.43,2367.83 638.26,2369.17 640.25,2368.94 639.80,2364.97"/>
    </edge>
    <edge id=":1163510027_w1" function="walkingarea">
        <lane id=":1163510027_w1_0" index="0" allow="pedestrian" speed="1.00" length="6.43" width="4.00" shape="646.16,2364.25 646.61,2368.22 648.60,2368.00 647.48,2358.55 645.49,2358.80"/>
    </edge>
    <edge id=":1276797552_0" function="internal">
        <lane id=":1276797552_0_0" index="0" allow="pedestrian bicycle" speed="2.78" length="5.03" width="2.00" shape="451.30,2358.89 451.57,2360.34 451.55,2361.36 451.40,2362.39 451.26,2363.88"/>
    </edge>
    <edge id=":1276797552_1" function="internal">
        <lane id=":1276797552_1_0" index="0" allow="pedestrian bicycle" speed="2.78" length="2.92" width="2.00" shape="451.30,2358.89 451.00,2359.74 450.58,2360.11 450.03,2359.99 449.36,2359.38"/>
    </edge>
    <edge id=":1276797552_2" function="internal">
        <lane id=":1276797552_2_0" index="0" allow="pedestrian bicycle" speed="2.78" length="4.45" width="2.00" shape="449.26,2363.79 449.39,2362.47 449.55,2361.56 449.59,2360.66 449.36,2359.38"/>
    </edge>
    <edge id=":1276797552_3" function="internal">
        <lane id=":1276797552_3_0" index="0" allow="pedestrian bicycle" speed="2.78" length="2.92" width="2.00" shape="449.26,2363.79 449.79,2363.06 450.30,2362.84 450.79,2363.11 451.26,2363.88"/>
    </edge>
    <edge id=":1276797552_w0" function="walkingarea">
        <lane id=":1276797552_w0_0" index="0" allow="pedestrian" speed="1.00" length="4.21" width="2.00" shape="453.48,2363.38 454.75,2361.84 452.27,2358.64 450.33,2359.14 450.33,2359.14 448.40,2359.63 448.26,2363.75 450.26,2363.84 450.26,2363.84 452.26,2363.92 453.21,2363.23 452.94,2363.18 452.69,2363.24 452.47,2363.39 452.32,2363.62"/>
    </edge>
    <edge id=":1305576639_0" function="internal">
        <lane id=":1305576639_0_0" index="0" disallow="pedestrian tram rail_urban rail rail_electric rail_fast ship" speed="13.89" length="5.05" shape="343.70,2592.33 338.70,2592.80"/>
        <lane id=":1305576639_0_1" index="1" disallow="pedestrian tram rail_urban rail rail_electric rail_fast ship" speed="13.89" length="5.05" shape="343.42,2589.14 338.38,2589.62"/>
    </edge>
    <edge id=":1305576639_2" function="internal">
        <lane id=":1305576639_2_0" index="0" disallow="pedestrian tram rail_urban rail rail_electric rail_fast ship" speed="13.89" length="5.14" shape="337.72,2583.25 342.87,2582.77"/>
        <lane id=":1305576639_2_1" index="1" disallow="pedestrian tram rail_urban rail rail_electric rail_fast ship" speed="13.89" length="5.14" shape="338.05,2586.44 343.15,2585.96"/>
    </edge>
    <edge id=":1305576639_c0" function="crossing" crossingEdges="-88714905#2 88714905#1">
        <lane id=":1305576639_c0_0" index="0" allow="pedestrian" speed="1.00" length="12.80" width="4.00" shape="340.74,2581.35 341.85,2594.10"/>
    </edge>
    <edge id=":1305576639_w0" function="walkingarea">
        <lane id=":1305576639_w0_0" index="0" allow="pedestrian" speed="1.00" length="1.59" width="4.00" shape="340.51,2595.75 342.50,2595.55 343.84,2593.93 339.86,2594.27"/>
    </edge>
    <edge id=":1305576639_w1" function="walkingarea">
        <lane id=":1305576639_w1_0" index="0" allow="pedestrian" speed="1.00" length="0.66" width="4.00" shape="338.74,2581.52 342.73,2581.17 341.07,2581.31 339.08,2581.51"/>
    </edge>
    <edge id=":1305576656_0" function="internal">
        <lane id=":1305576656_0_0" index="0" disallow="pedestrian tram rail_urban rail rail_electric rail_fast ship" speed="3.65" length="4.67" shape="697.13,2551.06 698.40,2551.75 698.87,2552.51 698.54,2553.34 697.42,2554.24"/>
    </edge>
    <edge id=":1305576657_0" function="internal">
        <lane id=":1305576657_0_0" index="0" allow="pedestrian bicycle" speed="2.78" length="5.25" width="2.00" shape="600.45,2549.42 605.49,2550.89"/>
    </edge>
    <edge id=":1305576657_w0" function="walkingarea">
        <lane id=":1305576657_w0_0" index="0" allow="pedestrian" speed="1.00" length="4.31" width="2.00" shape="605.25,2551.86 605.74,2549.92 603.98,2547.19 602.00,2547.44 600.76,2548.47 600.15,2550.37"/>
    </edge>
    <edge id=":1305576659_0" function="internal">
        <lane id=":1305576659_0_0" index="0" allow="pedestrian bicycle" speed="2.78" length="4.11" width="2.00" shape="340.59,2577.55 340.90,2578.65 341.47,2579.41 342.30,2579.82 343.39,2579.89"/>
    </edge>
    <edge id=":1305576659_1" function="internal">
        <lane id=":1305576659_1_0" index="0" allow="pedestrian bicycle" speed="2.78" length="2.92" width="2.00" shape="340.59,2577.55 340.20,2578.36 339.74,2578.68 339.21,2578.50 338.61,2577.83"/>
    </edge>
    <edge id=":1305576659_2" function="internal">
        <lane id=":1305576659_2_0" index="0" allow="pedestrian bicycle" speed="2.78" length="4.04" width="2.00" shape="336.48,2580.65 337.54,2580.35 338.26,2579.78 338.61,2578.94 338.61,2577.83"/>
    </edge>
    <edge id=":1305576659_3" function="internal">
        <lane id=":1305576659_3_0" index="0" allow="pedestrian bicycle" speed="2.78" length="6.95" width="2.00" shape="336.48,2580.65 343.39,2579.89"/>
    </edge>
    <edge id=":1305576659_w0" function="walkingarea">
        <lane id=":1305576659_w0_0" index="0" allow="pedestrian" speed="1.00" length="4.11" width="2.00" shape="339.06,2581.31 341.05,2581.11 343.48,2580.88 343.31,2578.89 341.58,2577.41 339.60,2577.69 339.60,2577.69 337.62,2577.97 336.35,2579.65 336.61,2581.64 338.93,2580.89 338.65,2580.81 338.25,2580.95 337.76,2581.21 337.21,2581.47"/>
    </edge>
    <edge id=":1305576663_0" function="internal">
        <lane id=":1305576663_0_0" index="0" allow="pedestrian bicycle" speed="2.78" length="1.52" width="2.00" shape="481.68,2563.67 482.11,2563.52 482.39,2563.40 482.66,2563.25 483.05,2563.02"/>
    </edge>
    <edge id=":1305576663_1" function="internal">
        <lane id=":1305576663_1_0" index="0" allow="pedestrian bicycle" speed="2.72" length="1.31" width="1.00" shape="481.68,2563.67 481.96,2563.64 482.17,2563.78 482.32,2564.07 482.40,2564.52"/>
    </edge>
    <edge id=":1305576663_w0" function="walkingarea">
        <lane id=":1305576663_w0_0" index="0" allow="pedestrian" speed="1.00" length="1.42" width="2.00" shape="481.90,2564.56 482.89,2564.47 483.56,2563.88 482.54,2562.15 481.36,2562.72 482.00,2564.61 481.90,2564.59 481.91,2564.61 481.93,2564.62 481.95,2564.62 481.97,2564.62"/>
    </edge>
    <edge id=":1338437573_0" function="internal">
        <lane id=":1338437573_0_0" index="0" disallow="pedestrian tram rail_urban rail rail_electric rail_fast ship" speed="13.89" length="4.94" shape="593.06,2568.26 588.11,2568.71"/>
        <lane id=":1338437573_0_1" index="1" disallow="pedestrian tram rail_urban rail rail_electric rail_fast ship" speed="13.89" length="4.94" shape="592.74,2565.07 587.86,2565.53"/>
    </edge>
    <edge id=":1338437573_2" function="internal">
        <lane id=":1338437573_2_0" index="0" disallow="pedestrian tram rail_urban rail rail_electric rail_fast ship" speed="13.89" length="4.80" shape="587.34,2559.15 592.09,2558.70"/>
        <lane id=":1338437573_2_1" index="1" disallow="pedestrian tram rail_urban rail rail_electric rail_fast ship" speed="13.89" length="4.80" shape="587.60,2562.34 592.42,2561.89"/>
    </edge>
    <edge id=":1338437591_0" function="internal">
        <lane id=":1338437591_0_0" index="0" allow="pedestrian bicycle" speed="2.78" length="5.04" width="2.00" shape="593.57,2572.04 588.56,2572.60"/>
    </edge>
    <edge id=":1338437591_w0" function="walkingarea">
        <lane id=":1338437591_w0_0" index="0" allow="pedestrian" speed="1.00" length="3.68" width="2.00" shape="590.36,2574.91 592.34,2574.71 593.68,2573.04 593.46,2571.05 591.84,2570.66 589.86,2570.98 588.45,2571.61 588.67,2573.60 590.27,2574.44 590.11,2574.07 589.87,2573.81 589.56,2573.65 589.16,2573.58"/>
    </edge>
    <edge id=":1338437598_0" function="internal">
        <lane id=":1338437598_0_0" index="0" allow="pedestrian bicycle" speed="2.78" length="4.57" width="2.00" shape="559.02,2581.96 557.85,2582.63 556.99,2582.98 556.06,2583.16 554.72,2583.29"/>
    </edge>
    <edge id=":1338437598_w0" function="walkingarea">
        <lane id=":1338437598_w0_0" index="0" allow="pedestrian" speed="1.00" length="3.98" width="2.00" shape="556.46,2585.64 558.45,2585.43 559.54,2582.81 558.50,2581.10 554.63,2582.29 554.81,2584.28 556.37,2585.16 556.22,2584.79 555.99,2584.53 555.68,2584.36 555.29,2584.28"/>
    </edge>
    <edge id=":1705713103_0" function="internal">
        <lane id=":1705713103_0_0" index="0" disallow="pedestrian tram rail_urban rail rail_electric rail_fast ship" speed="7.30" length="6.25" shape="143.09,2549.69 141.48,2549.60 140.04,2549.16 138.76,2548.36 137.64,2547.20"/>
    </edge>
    <edge id=":1705713103_c0" function="crossing" crossingEdges="158350391#0">
        <lane id=":1705713103_c0_0" index="0" allow="pedestrian" speed="1.00" length="3.20" width="4.00" shape="141.01,2548.20 141.19,2551.39"/>
    </edge>
    <edge id=":1705713103_w0" function="walkingarea">
        <lane id=":1705713103_w0_0" index="0" allow="pedestrian" speed="1.00" length="5.64" width="4.00" shape="136.37,2548.18 134.79,2549.40 136.48,2553.97 138.26,2554.86 143.29,2553.28 143.18,2551.28 141.82,2551.26 140.55,2551.04 139.37,2550.62 138.28,2550.01 137.28,2549.19"/>
    </edge>
    <edge id=":1705713103_w1" function="walkingarea">
        <lane id=":1705713103_w1_0" index="0" allow="pedestrian" speed="1.00" length="2.91" width="4.00" shape="143.01,2548.09 142.90,2546.09 140.48,2544.99 138.90,2546.22 139.45,2546.83 140.05,2547.32 140.71,2547.69 141.42,2547.94 142.19,2548.08"/>
    </edge>
    <edge id=":1884944967_0" function="internal">
        <lane id=":1884944967_0_0" index="0" allow="pedestrian bicycle" speed="2.78" length="7.65" width="2.00" shape="336.22,2426.73 334.62,2425.13 333.40,2424.18 332.07,2423.34 330.16,2422.13"/>
    </edge>
    <edge id=":1884944967_1" function="internal">
        <lane id=":1884944967_1_0" index="0" allow="pedestrian bicycle" speed="2.78" length="8.47" width="2.00" shape="336.22,2426.73 334.74,2424.81 334.17,2423.21 334.05,2421.40 333.92,2418.87"/>
    </edge>
    <edge id=":1884944967_2" function="internal">
        <lane id=":1884944967_2_0" index="0" allow="pedestrian bicycle" speed="2.78" length="2.92" width="2.00" shape="336.22,2426.73 336.07,2425.84 336.27,2425.32 336.80,2425.16 337.68,2425.37"/>
    </edge>
    <edge id=":1884944967_3" function="internal">
        <lane id=":1884944967_3_0" index="0" allow="pedestrian bicycle" speed="2.78" length="7.17" width="2.00" shape="335.91,2418.67 335.99,2420.82 336.03,2422.36 336.45,2423.74 337.68,2425.37"/>
    </edge>
    <edge id=":1884944967_4" function="internal">
        <lane id=":1884944967_4_0" index="0" allow="pedestrian bicycle" speed="2.78" length="10.06" width="2.00" shape="335.91,2418.67 335.83,2421.81 334.85,2423.43 332.96,2423.53 330.16,2422.13"/>
    </edge>
    <edge id=":1884944967_5" function="internal">
        <lane id=":1884944967_5_0" index="0" allow="pedestrian bicycle" speed="2.78" length="2.92" width="2.00" shape="335.91,2418.67 335.48,2419.47 335.01,2419.77 334.49,2419.57 333.92,2418.87"/>
    </edge>
    <edge id=":1884944967_6" function="internal">
        <lane id=":1884944967_6_0" index="0" allow="pedestrian bicycle" speed="2.78" length="4.64" width="2.00" shape="331.26,2420.46 332.55,2421.11 333.43,2421.06 333.88,2420.31 333.92,2418.87"/>
    </edge>
    <edge id=":1884944967_7" function="internal">
        <lane id=":1884944967_7_0" index="0" allow="pedestrian bicycle" speed="2.78" length="8.12" width="2.00" shape="331.26,2420.46 333.30,2421.76 334.70,2422.64 335.99,2423.67 337.68,2425.37"/>
    </edge>
    <edge id=":1884944967_8" function="internal">
        <lane id=":1884944967_8_0" index="0" allow="pedestrian bicycle" speed="2.78" length="2.92" width="2.00" shape="331.26,2420.46 331.61,2421.29 331.54,2421.85 331.06,2422.12 330.16,2422.13"/>
    </edge>
    <edge id=":1884944967_w0" function="walkingarea">
        <lane id=":1884944967_w0_0" index="0" allow="pedestrian" speed="1.00" length="5.89" width="2.00" shape="335.49,2427.41 336.95,2426.05 336.95,2426.05 338.41,2424.68 336.90,2418.58 334.91,2418.77 334.91,2418.77 332.92,2418.97 331.82,2419.63 330.71,2421.29 330.71,2421.29 329.60,2422.96 334.39,2426.29 333.53,2425.51 332.75,2424.94 331.93,2424.42 330.93,2423.81"/>
    </edge>
    <edge id=":1884944969_0" function="internal">
        <lane id=":1884944969_0_0" index="0" allow="pedestrian bicycle" speed="2.78" length="6.69" width="2.00" shape="317.71,2423.15 316.08,2424.30 314.94,2425.10 314.00,2426.08 312.97,2427.73"/>
    </edge>
    <edge id=":1884944969_1" function="internal">
        <lane id=":1884944969_1_0" index="0" allow="pedestrian bicycle" speed="2.78" length="9.21" width="2.00" shape="317.71,2423.15 315.30,2424.52 313.47,2424.54 312.22,2423.20 311.55,2420.51"/>
    </edge>
    <edge id=":1884944969_2" function="internal">
        <lane id=":1884944969_2_0" index="0" allow="pedestrian bicycle" speed="2.78" length="2.92" width="2.00" shape="317.71,2423.15 316.81,2423.21 316.31,2422.96 316.20,2422.41 316.50,2421.56"/>
    </edge>
    <edge id=":1884944969_3" function="internal">
        <lane id=":1884944969_3_0" index="0" allow="pedestrian bicycle" speed="2.78" length="4.43" width="2.00" shape="313.54,2420.29 313.86,2421.58 314.46,2422.23 315.34,2422.22 316.50,2421.56"/>
    </edge>
    <edge id=":1884944969_4" function="internal">
        <lane id=":1884944969_4_0" index="0" allow="pedestrian bicycle" speed="2.78" length="7.69" width="2.00" shape="313.54,2420.29 313.88,2422.56 314.08,2424.17 313.87,2425.71 312.97,2427.73"/>
    </edge>
    <edge id=":1884944969_5" function="internal">
        <lane id=":1884944969_5_0" index="0" allow="pedestrian bicycle" speed="2.78" length="2.92" width="2.00" shape="313.54,2420.29 313.13,2421.09 312.66,2421.39 312.13,2421.20 311.55,2420.51"/>
    </edge>
    <edge id=":1884944969_6" function="internal">
        <lane id=":1884944969_6_0" index="0" allow="pedestrian bicycle" speed="2.78" length="6.47" width="2.00" shape="311.21,2426.78 311.95,2425.08 312.07,2423.78 311.86,2422.42 311.55,2420.51"/>
    </edge>
    <edge id=":1884944969_7" function="internal">
        <lane id=":1884944969_7_0" index="0" allow="pedestrian bicycle" speed="2.78" length="7.54" width="2.00" shape="311.21,2426.78 312.37,2424.90 313.41,2423.79 314.67,2422.86 316.50,2421.56"/>
    </edge>
    <edge id=":1884944969_8" function="internal">
        <lane id=":1884944969_8_0" index="0" allow="pedestrian bicycle" speed="2.78" length="2.92" width="2.00" shape="311.21,2426.78 312.01,2426.36 312.57,2426.38 312.89,2426.84 312.97,2427.73"/>
    </edge>
    <edge id=":1884944969_w0" function="walkingarea">
        <lane id=":1884944969_w0_0" index="0" allow="pedestrian" speed="1.00" length="5.51" width="2.00" shape="318.31,2423.95 317.10,2422.36 317.10,2422.36 315.90,2420.76 314.53,2420.18 312.55,2420.40 312.55,2420.40 310.56,2420.62 310.33,2426.31 312.09,2427.26 312.09,2427.26 313.85,2428.21 317.23,2424.72 316.39,2425.28 315.71,2425.76 315.11,2426.31 314.52,2427.08"/>
    </edge>
    <edge id=":1884944986_0" function="internal">
        <lane id=":1884944986_0_0" index="0" allow="pedestrian bicycle" speed="2.78" length="4.19" width="2.00" shape="378.67,2456.74 378.36,2455.70 377.76,2454.98 376.87,2454.58 375.69,2454.49"/>
    </edge>
    <edge id=":1884944986_1" function="internal">
        <lane id=":1884944986_1_0" index="0" allow="pedestrian bicycle" speed="2.78" length="6.96" width="2.00" shape="378.67,2456.74 377.87,2449.82"/>
    </edge>
    <edge id=":1884944986_2" function="internal">
        <lane id=":1884944986_2_0" index="0" allow="pedestrian bicycle" speed="2.78" length="2.92" width="2.00" shape="378.67,2456.74 379.06,2455.93 379.52,2455.61 380.05,2455.79 380.65,2456.46"/>
    </edge>
    <edge id=":1884944986_3" function="internal">
        <lane id=":1884944986_3_0" index="0" allow="pedestrian bicycle" speed="2.78" length="6.88" width="2.00" shape="379.86,2449.63 380.65,2456.46"/>
    </edge>
    <edge id=":1884944986_4" function="internal">
        <lane id=":1884944986_4_0" index="0" allow="pedestrian bicycle" speed="2.78" length="7.37" width="2.00" shape="379.86,2449.63 379.76,2451.66 379.03,2453.14 377.68,2454.09 375.69,2454.49"/>
    </edge>
    <edge id=":1884944986_5" function="internal">
        <lane id=":1884944986_5_0" index="0" allow="pedestrian bicycle" speed="2.78" length="2.92" width="2.00" shape="379.86,2449.63 379.43,2450.43 378.96,2450.72 378.43,2450.52 377.87,2449.82"/>
    </edge>
    <edge id=":1884944986_6" function="internal">
        <lane id=":1884944986_6_0" index="0" allow="pedestrian bicycle" speed="2.78" length="4.05" width="2.00" shape="375.57,2452.50 376.67,2452.27 377.41,2451.75 377.81,2450.94 377.87,2449.82"/>
    </edge>
    <edge id=":1884944986_7" function="internal">
        <lane id=":1884944986_7_0" index="0" allow="pedestrian bicycle" speed="2.78" length="7.23" width="2.00" shape="375.57,2452.50 377.58,2452.65 379.09,2453.36 380.12,2454.63 380.65,2456.46"/>
    </edge>
    <edge id=":1884944986_8" function="internal">
        <lane id=":1884944986_8_0" index="0" allow="pedestrian bicycle" speed="2.78" length="2.92" width="2.00" shape="375.57,2452.50 376.35,2452.95 376.63,2453.44 376.41,2453.95 375.69,2454.49"/>
    </edge>
    <edge id=":1884944986_w0" function="walkingarea">
        <lane id=":1884944986_w0_0" index="0" allow="pedestrian" speed="1.00" length="5.02" width="2.00" shape="377.68,2456.88 379.66,2456.60 379.66,2456.60 381.64,2456.33 380.85,2449.54 378.86,2449.73 378.86,2449.73 376.87,2449.92 375.52,2451.50 375.63,2453.49 375.63,2453.49 375.75,2455.49 377.57,2456.43 377.37,2456.06 377.09,2455.79 376.73,2455.60 376.28,2455.50"/>
    </edge>
    <edge id=":1884944989_0" function="internal">
        <lane id=":1884944989_0_0" index="0" allow="pedestrian bicycle" speed="2.78" length="6.56" width="2.00" shape="349.44,2458.43 349.37,2456.49 349.27,2455.16 349.09,2453.84 348.74,2451.92"/>
    </edge>
    <edge id=":1884944989_1" function="internal">
        <lane id=":1884944989_1_0" index="0" allow="pedestrian bicycle" speed="2.78" length="7.19" width="2.00" shape="349.44,2458.43 349.65,2456.48 350.43,2455.05 351.79,2454.14 353.71,2453.75"/>
    </edge>
    <edge id=":1884944989_2" function="internal">
        <lane id=":1884944989_2_0" index="0" allow="pedestrian bicycle" speed="2.78" length="2.92" width="2.00" shape="349.44,2458.43 349.91,2457.67 350.40,2457.40 350.91,2457.63 351.44,2458.37"/>
    </edge>
    <edge id=":1884944989_3" function="internal">
        <lane id=":1884944989_3_0" index="0" allow="pedestrian bicycle" speed="2.78" length="4.02" width="2.00" shape="353.83,2455.75 352.75,2455.97 351.99,2456.47 351.56,2457.27 351.44,2458.37"/>
    </edge>
    <edge id=":1884944989_4" function="internal">
        <lane id=":1884944989_4_0" index="0" allow="pedestrian bicycle" speed="2.78" length="7.07" width="2.00" shape="353.83,2455.75 351.89,2455.60 350.39,2454.92 349.34,2453.69 348.74,2451.92"/>
    </edge>
    <edge id=":1884944989_5" function="internal">
        <lane id=":1884944989_5_0" index="0" allow="pedestrian bicycle" speed="2.78" length="2.92" width="2.00" shape="353.83,2455.75 353.05,2455.29 352.77,2454.81 352.99,2454.29 353.71,2453.75"/>
    </edge>
    <edge id=":1884944989_6" function="internal">
        <lane id=":1884944989_6_0" index="0" allow="pedestrian bicycle" speed="2.78" length="4.13" width="2.00" shape="350.71,2451.56 351.06,2452.57 351.68,2453.28 352.56,2453.67 353.71,2453.75"/>
    </edge>
    <edge id=":1884944989_7" function="internal">
        <lane id=":1884944989_7_0" index="0" allow="pedestrian bicycle" speed="2.78" length="6.86" width="2.00" shape="350.71,2451.56 351.07,2453.56 351.26,2454.94 351.36,2456.33 351.44,2458.37"/>
    </edge>
    <edge id=":1884944989_8" function="internal">
        <lane id=":1884944989_8_0" index="0" allow="pedestrian bicycle" speed="2.78" length="2.92" width="2.00" shape="350.71,2451.56 350.36,2452.39 349.91,2452.72 349.37,2452.57 348.74,2451.92"/>
    </edge>
    <edge id=":1884944989_w0" function="walkingarea">