<?xml version="1.0" encoding="UTF-8"?>

<!-- generated on 2022-03-31 12:13:18 by Eclipse SUMO polyconvert Version 1.12.0
<configuration xmlns:xsi="http://www.w3.org/2001/XMLSchema-instance" xsi:noNamespaceSchemaLocation="http://sumo.dlr.de/xsd/polyconvertConfiguration.xsd">

    <input>
        <net-file value="osm.net.xml"/>
        <osm-files value="osm_bbox.osm.xml"/>
        <osm.keep-full-type value="true"/>
        <type-file value="/usr/share/sumo/data/typemap/osmPolyconvert.typ.xml"/>
    </input>

    <output>
        <output-file value="osm.poly.xml"/>
    </output>

    <processing>
        <poi-layer-offset value="5"/>
    </processing>

    <report>
        <verbose value="true"/>
    </report>

</configuration>
-->

<additional xmlns:xsi="http://www.w3.org/2001/XMLSchema-instance" xsi:noNamespaceSchemaLocation="http://sumo.dlr.de/xsd/additional_file.xsd">
    <location netOffset="-690634.03,-5335533.48" convBoundary="-35.62,-0.00,802.94,3718.83" origBoundary="11.562828,48.144460,11.574571,48.177709" projParameter="+proj=utm +zone=32 +ellps=WGS84 +datum=WGS84 +units=m +no_defs"/>

    <poly id="117889562" type="building.apartments" color="255,230,230" fill="1" layer="-1.00" shape="574.084226,2445.360213 583.166514,2444.418028 601.341142,2442.233632 626.744230,2439.568052 639.372929,2438.077099 636.813738,2415.805916 635.007505,2399.723819 633.699649,2388.097734 632.262450,2375.221193 596.394910,2379.194328 590.441838,2379.818429 589.731560,2373.018846 582.904518,2373.736094 574.732515,2374.608613 577.090875,2396.439111 616.876066,2392.163072 620.404975,2424.825128 584.870834,2428.631458 583.262580,2413.746506 566.063689,2415.685463 562.365257,2416.106884 564.013353,2430.025186 567.683154,2429.569430 570.059677,2429.281794 572.277839,2429.055617 574.084226,2445.360213"/>
    <poly id="117889565" type="building.apartments" color="255,230,230" fill="1" layer="-1.00" shape="175.734308,2363.529132 176.386772,2371.405933 177.166080,2380.833495 169.173708,2381.234165 168.449333,2363.920049 175.734308,2363.529132"/>
    <poly id="117889567" type="building.yes" color="255,230,230" fill="1" layer="-1.00" shape="264.117475,2579.957614 272.822915,2579.147001 305.247448,2576.147223 304.074655,2563.580042 262.944965,2567.379330 263.332829,2571.586827 263.870182,2577.334719 264.117475,2579.957614"/>
    <poly id="117889569" type="building.yes" color="255,230,230" fill="1" layer="-1.00" shape="237.350718,2458.823698 234.066834,2416.534998 233.230270,2404.591013 227.156464,2405.044564 220.851068,2405.523763 222.177121,2423.091642 224.949326,2459.755690 237.350718,2458.823698"/>
    <poly id="117889571" type="building.yes" color="255,230,230" fill="1" layer="-1.00" shape="177.166080,2380.833495 177.564270,2388.746309 178.369947,2404.739140 179.517227,2427.441281 165.914685,2428.010636 149.524507,2428.698338 121.924295,2429.857407 119.173829,2429.976978 115.872079,2430.111525 115.392387,2421.962351 118.582249,2421.835194 171.115941,2419.806385 169.173708,2381.234165 177.166080,2380.833495"/>
    <poly id="117889572" type="building.yes" color="255,230,230" fill="1" layer="-1.00" shape="234.066834,2416.534998 256.365802,2414.987958 255.189821,2401.397093 244.492349,2402.341471 233.118308,2403.040747 233.230270,2404.591013 234.066834,2416.534998"/>
    <poly id="117889574" type="building.yes" color="255,230,230" fill="1" layer="-1.00" shape="255.189821,2401.397093 252.911501,2375.797730 257.696521,2375.379031 257.327960,2371.261191 226.922339,2373.950458 227.810879,2383.893481 242.726120,2382.578166 244.492349,2402.341471 255.189821,2401.397093"/>
    <poly id="118071508" type="building.apartments" color="255,230,230" fill="1" layer="-1.00" shape="141.754685,2710.429408 162.768853,2707.426159 160.985824,2695.072290 150.942430,2696.505948 139.979046,2698.075795 141.754685,2710.429408"/>
    <poly id="118071520" type="building.apartments" color="255,230,230" fill="1" layer="-1.00" shape="162.768853,2707.426159 187.806500,2703.845297 186.030957,2691.491667 172.988540,2693.359175 160.985824,2695.072290 162.768853,2707.426159"/>
    <poly id="118071528" type="building.apartments" color="255,230,230" fill="1" layer="-1.00" shape="121.026388,2713.342143 141.754685,2710.429408 139.979046,2698.075795 130.063163,2699.480369 119.010951,2701.036163 121.026388,2713.342143"/>
    <poly id="119051969" type="building.yes" color="255,230,230" fill="1" layer="-1.00" shape="556.761978,2606.465444 555.857710,2597.233876 555.130724,2589.821799 514.696445,2593.742685 515.422367,2601.188096 517.118403,2618.568215 557.560317,2614.636486 556.761978,2606.465444"/>
    <poly id="119051969#1" type="leisure.sports_centre" color="207,245,201" fill="1" layer="-2.00" shape="556.761978,2606.465444 555.857710,2597.233876 555.130724,2589.821799 514.696445,2593.742685 515.422367,2601.188096 517.118403,2618.568215 557.560317,2614.636486 556.761978,2606.465444"/>
    <poly id="119051969#2" type="sport.multi" color="79,230,125" fill="1" layer="-2.00" shape="556.761978,2606.465444 555.857710,2597.233876 555.130724,2589.821799 514.696445,2593.742685 515.422367,2601.188096 517.118403,2618.568215 557.560317,2614.636486 556.761978,2606.465444"/>
    <poly id="119051970" type="building.roof" color="255,230,230" fill="1" layer="-1.00" shape="591.002578,2599.244494 588.895635,2581.249777 591.598846,2580.984214 594.368969,2580.720892 596.475894,2598.715611 591.002578,2599.244494"/>
    <poly id="120283474" type="building.yes" color="255,230,230" fill="1" layer="-1.00" shape="91.234561,2681.873204 116.859693,2680.314334 130.502112,2679.201053 140.122472,2677.063415 138.083280,2665.023660 120.845995,2667.474417 103.936144,2668.812423 91.234561,2681.873204"/>
    <poly id="120283518" type="building.yes" color="255,230,230" fill="1" layer="-1.00" shape="140.122472,2677.063415 149.883029,2675.853939 173.910124,2672.895703 186.824356,2671.302065 185.536008,2656.617104 172.644687,2656.186565 172.749321,2659.739280 138.083280,2665.023660 140.122472,2677.063415"/>
    <poly id="120283524" type="building.apartments" color="255,230,230" fill="1" layer="-1.00" shape="116.391514,2628.128519 115.990749,2633.444531 172.365735,2631.110179 172.644687,2656.186565 185.536008,2656.617104 186.199077,2616.707725 169.778196,2617.216294 143.604791,2618.022316 125.604845,2618.567294 115.755302,2618.872633 116.391514,2628.128519"/>
    <poly id="123850550" type="building.yes" color="255,230,230" fill="1" layer="-1.00" shape="541.443121,2715.945755 572.246810,2712.214595 574.023331,2726.738024 543.212284,2730.468924 541.443121,2715.945755"/>
    <poly id="123850553" type="leisure.pitch" color="207,245,201" fill="1" layer="-2.00" shape="515.673533,2732.718431 541.129555,2729.987565 539.003982,2710.323325 573.819668,2706.581780 564.376941,2619.337302 504.104256,2625.809848 515.673533,2732.718431"/>
    <poly id="123850553#1" type="sport.multi" color="79,230,125" fill="1" layer="-2.00" shape="515.673533,2732.718431 541.129555,2729.987565 539.003982,2710.323325 573.819668,2706.581780 564.376941,2619.337302 504.104256,2625.809848 515.673533,2732.718431"/>
    <poly id="158399729" type="landuse.residential" color="235,235,227" fill="1" layer="-3.00" shape="268.887995,2531.852009 308.055617,2529.311183 309.033982,2580.434927 376.731311,2574.063885 373.851340,2540.878562 396.231667,2538.444724 393.589585,2498.814199 454.457059,2493.061256 453.264107,2479.547634 396.399677,2484.444211 394.769261,2459.967894 426.306495,2457.261749 424.177299,2431.010814 392.305010,2435.052036 383.136997,2360.189507 342.507975,2363.215098 338.995197,2328.017103 429.609448,2319.753345 428.365703,2297.515172 340.751068,2305.100396 334.117404,2219.408019 284.796730,2224.124051 288.912415,2285.621953 289.121820,2288.710877 290.310871,2304.805557 290.744183,2311.217538 301.885363,2378.524397 260.845769,2381.369945 268.887995,2531.852009"/>
    <poly id="158399729#1" type="leisure.park" color="207,245,201" fill="1" layer="-2.00" shape="268.887995,2531.852009 308.055617,2529.311183 309.033982,2580.434927 376.731311,2574.063885 373.851340,2540.878562 396.231667,2538.444724 393.589585,2498.814199 454.457059,2493.061256 453.264107,2479.547634 396.399677,2484.444211 394.769261,2459.967894 426.306495,2457.261749 424.177299,2431.010814 392.305010,2435.052036 383.136997,2360.189507 342.507975,2363.215098 338.995197,2328.017103 429.609448,2319.753345 428.365703,2297.515172 340.751068,2305.100396 334.117404,2219.408019 284.796730,2224.124051 288.912415,2285.621953 289.121820,2288.710877 290.310871,2304.805557 290.744183,2311.217538 301.885363,2378.524397 260.845769,2381.369945 268.887995,2531.852009"/>
    <poly id="167168966" type="building.yes" color="255,230,230" fill="1" layer="-1.00" shape="180.971236,2588.717912 193.340372,2587.851521 192.620583,2577.535850 191.860615,2566.640282 179.484000,2567.506430 180.971236,2588.717912"/>
    <poly id="19679713" type="leisure.park" color="207,245,201" fill="1" layer="-2.00" shape="594.761017,3718.827421 557.534974,3709.614830 526.400323,3697.824824 514.606729,3692.456723 404.026964,3641.515427 411.867585,3625.355507 546.569326,3673.733091 577.812284,3581.152379 565.069382,3514.547455 543.895813,3463.248136 534.606500,3440.184265 531.201448,3431.859211 520.876285,3403.498037 474.997460,3330.321683 455.480114,3303.989619 425.490401,3287.487760 336.862282,3289.553074 336.081796,3293.309861 325.584987,3336.606702 315.540987,3378.383289 309.431670,3423.117452 296.931234,3423.956845 298.560962,3467.814844 290.366039,3468.531142 277.243455,3465.277619 264.016461,3464.034464 248.151577,3472.026867 243.142276,3474.062437 236.496975,3479.180905 233.137969,3484.164418 227.668271,3475.703821 220.479419,3461.455841 216.821294,3456.237855 208.908080,3444.513569 202.742969,3437.932330 221.884037,3438.571865 220.287006,3377.903471 244.506102,3378.690490 262.608404,3373.454229 271.851355,3362.314365 271.467675,3340.394227 270.930158,3320.627415 259.144022,3297.413876 253.167105,3271.835487 253.256592,3199.897067 259.372959,3195.918041 259.704568,3090.008592 248.275407,3079.257155 229.437734,3062.149984 231.800943,3006.787582 238.495734,2999.312001 241.260194,2992.083393 239.360978,2964.060047 234.662939,2908.428352 232.856484,2888.763814 229.724586,2851.520269 226.571757,2812.896396 222.902239,2813.352364 221.862880,2802.580961 220.896876,2795.183216 218.402778,2760.898286 212.388053,2760.708490 213.671629,2700.225427 205.350203,2688.877003 201.787971,2606.569599 228.097083,2604.600133 228.487604,2609.619920 336.409907,2600.664799 348.689099,2599.595467 451.162770,2590.449233 450.596238,2584.244165 473.140751,2582.683964 480.116584,2584.408198 482.485224,2587.024184 483.616740,2595.473380 503.052537,2740.229108 526.000003,2911.226661 640.962879,2900.354704 614.108831,3054.465103 612.238099,3065.217088 621.269175,3098.452831 653.079260,3132.618211 653.264505,3156.200730 652.553597,3161.873514 650.670734,3176.986537 627.099798,3365.519896 624.787956,3384.334697 614.891235,3462.987894 612.931211,3477.519783 597.031945,3632.553352 595.958251,3650.619659 595.099269,3671.385686 596.099711,3700.625344 599.398965,3716.991126 594.761017,3718.827421"/>
    <poly id="206004756" type="landuse.residential" color="235,235,227" fill="1" layer="-3.00" shape="212.388053,2760.708490 98.603488,2776.601861 90.296680,2780.418942 70.398772,2784.327534 86.080838,2684.427051 77.185552,2617.573942 75.562142,2605.336703 201.787971,2606.569599 205.350203,2688.877003 213.671629,2700.225427 212.388053,2760.708490"/>
    <poly id="244464582" type="building.yes" color="255,230,230" fill="1" layer="-1.00" shape="147.005371,2559.423536 141.362932,2559.669049 141.083014,2553.117568 146.725088,2552.883168 147.005371,2559.423536"/>
    <poly id="25675167" type="leisure.playground" color="207,245,201" fill="1" layer="-2.00" shape="269.082900,2394.362268 304.331501,2392.858666 305.323251,2426.659507 298.957170,2446.996672 274.695103,2446.708899 271.696684,2446.675473 269.082900,2394.362268"/>
    <poly id="262566828" type="building.house" color="255,230,230" fill="1" layer="-1.00" shape="444.991445,2529.060332 421.910336,2531.303658 419.059246,2502.158045 442.140469,2499.914705 444.991445,2529.060332"/>
    <poly id="262566829" type="building.house" color="255,230,230" fill="1" layer="-1.00" shape="381.342881,2568.810769 434.859409,2562.956549 432.660124,2543.034016 379.143415,2548.888261 381.342881,2568.810769"/>
    <poly id="26922368" type="leisure.pitch" color="207,245,201" fill="1" layer="-2.00" shape="392.305010,2435.052036 383.136997,2360.189507 342.507975,2363.215098 338.995197,2328.017103 429.609448,2319.753345 432.648806,2352.843889 435.963627,2352.543068 442.714321,2428.671142 424.177299,2431.010814 392.305010,2435.052036"/>
    <poly id="26922368#1" type="sport.tennis" color="79,230,125" fill="1" layer="-2.00" shape="392.305010,2435.052036 383.136997,2360.189507 342.507975,2363.215098 338.995197,2328.017103 429.609448,2319.753345 432.648806,2352.843889 435.963627,2352.543068 442.714321,2428.671142 424.177299,2431.010814 392.305010,2435.052036"/>
    <poly id="27390774" type="amenity.place_of_worship" color="237,199,199" fill="1" layer="-1.00" shape="119.547576,2593.565029 125.872458,2593.164265 154.310839,2591.399063 166.475147,2590.648161 169.321665,2587.650169 168.377437,2572.687433 165.371293,2572.887448 164.984795,2567.745417 152.924894,2568.488685 153.027208,2570.105383 118.219211,2572.269872 119.251395,2588.837684 119.547576,2593.565029"/>
    <poly id="27390774#1" type="building.church" color="255,230,230" fill="1" layer="-1.00" shape="119.547576,2593.565029 125.872458,2593.164265 154.310839,2591.399063 166.475147,2590.648161 169.321665,2587.650169 168.377437,2572.687433 165.371293,2572.887448 164.984795,2567.745417 152.924894,2568.488685 153.027208,2570.105383 118.219211,2572.269872 119.251395,2588.837684 119.547576,2593.565029"/>
    <poly id="274136453" type="building.yes" color="255,230,230" fill="1" layer="-1.00" shape="226.548305,2396.957836 227.156464,2405.044564 222.172580,2405.178491 220.989120,2392.477476 220.692326,2389.330006 226.119692,2388.843729 226.293072,2392.120589 226.548305,2396.957836"/>
    <poly id="274136454" type="building.yes" color="255,230,230" fill="1" layer="-1.00" shape="248.664747,2578.662506 263.870182,2577.334719 263.332829,2571.586827 248.165648,2572.437472 248.664747,2578.662506"/>
    <poly id="274136460" type="building.yes" color="255,230,230" fill="1" layer="-1.00" shape="163.778421,2551.716950 164.984795,2567.745417 165.371293,2572.887448 168.377437,2572.687433 179.529205,2571.947247 177.993611,2550.400369 163.778421,2551.716950"/>
    <poly id="28493997" type="building.yes" color="255,230,230" fill="1" layer="-1.00" shape="594.089087,2710.275360 584.717855,2614.454973 618.476591,2611.178966 627.847273,2706.999422 594.089087,2710.275360"/>
    <poly id="308608089" type="landuse.residential" color="235,235,227" fill="1" layer="-3.00" shape="48.946422,2230.879566 87.177897,2227.226646 182.980845,2218.075124 308.239456,2207.528402 424.793690,2193.311011 564.637575,2174.912932 802.944138,2139.644307 746.411906,2546.959199 704.557937,2567.030884 574.794573,2577.818302 563.043748,2585.780784 483.616740,2595.473380 482.485224,2587.024184 480.116584,2584.408198 473.140751,2582.683964 450.596238,2584.244165 451.162770,2590.449233 348.689099,2599.595467 336.409907,2600.664799 228.487604,2609.619920 228.097083,2604.600133 201.787971,2606.569599 75.562142,2605.336703 72.145192,2604.466077 66.511921,2440.758195 48.946422,2230.879566"/>
    <poly id="309049749" type="amenity.school" color="237,199,199" fill="1" layer="-2.00" shape="483.616740,2595.473380 563.043748,2585.780784 574.794573,2577.818302 704.557937,2567.030884 679.801511,2724.882952 503.052537,2740.229108 483.616740,2595.473380"/>
    <poly id="33142826" type="leisure.playground" color="207,245,201" fill="1" layer="-2.00" shape="246.212638,2720.449409 243.341958,2693.205828 268.993851,2690.624933 270.266673,2703.540358 270.767172,2708.608330 271.623914,2717.938376 251.215567,2719.960119 246.212638,2720.449409"/>
    <poly id="336420342" type="amenity.parking" color="184,184,179" fill="1" layer="-1.00" shape="575.076082,2441.521512 572.815120,2421.229677 571.892587,2413.210246 571.316095,2408.195324 631.944315,2401.846508 635.437447,2434.240354 575.076082,2441.521512"/>
    <poly id="363272901" type="amenity.parking" color="184,184,179" fill="1" layer="-1.00" shape="450.596238,2584.244165 451.162770,2590.449233 348.689099,2599.595467 347.727925,2587.157732 450.052006,2577.372276 450.596238,2584.244165"/>
    <poly id="363272902" type="amenity.parking" color="184,184,179" fill="1" layer="-1.00" shape="228.487604,2609.619920 336.409907,2600.664799 335.386259,2588.313988 227.558558,2598.218020 228.097083,2604.600133 228.487604,2609.619920"/>
    <poly id="364539900" type="amenity.parking" color="184,184,179" fill="1" layer="-1.00" shape="474.071197,2560.651992 478.279912,2559.212859 471.221465,2482.295564 465.539143,2482.839835 474.071197,2560.651992"/>
    <poly id="40698676" type="building.yes" color="255,230,230" fill="1" layer="-1.00" shape="483.143699,2500.585137 502.363407,2498.524405 500.261703,2479.027892 481.034497,2481.088384 483.143699,2500.585137"/>
    <poly id="40698677" type="building.yes" color="255,230,230" fill="1" layer="-1.00" shape="493.702596,2553.175467 491.696795,2537.709820 491.182331,2533.731712 481.412507,2534.984819 484.667700,2560.049590 494.430049,2558.796241 493.702596,2553.175467"/>
    <poly id="40699070" type="building.apartments" color="255,230,230" fill="1" layer="-1.00" shape="147.495809,2542.060975 190.959700,2539.462544 190.265188,2529.503755 188.735164,2507.567647 187.490081,2489.802212 186.252047,2472.048140 184.959314,2453.480039 184.295643,2443.933948 172.587903,2445.044986 178.014024,2528.171135 158.000900,2529.260731 155.280025,2446.914765 143.952544,2447.337615 144.193817,2453.932309 144.750798,2468.681834 145.309269,2483.609427 145.850242,2498.169275 146.391566,2512.495488 147.123521,2532.257593 147.495809,2542.060975"/>
    <poly id="450076920" type="building.yes" color="255,230,230" fill="1" layer="-1.00" shape="574.075699,2615.534081 574.213582,2616.973966 583.218919,2709.054825 584.495115,2722.070611 627.333233,2717.908083 641.265669,2717.028249 631.090251,2615.461979 630.724208,2611.722469 630.562925,2610.092654 657.071181,2607.519880 656.327233,2599.951448 655.981385,2592.941527 596.475894,2598.715611 593.877519,2598.962428 591.002578,2599.244494 562.321216,2602.034133 562.362413,2605.918531 559.644347,2606.183610 556.761978,2606.465444 557.560317,2614.636486 563.578565,2614.059051 563.816056,2616.525873 574.075699,2615.534081"/>
    <poly id="464690297" type="amenity.parking" color="184,184,179" fill="1" layer="-1.00" shape="504.430896,2584.453850 503.827986,2579.115394 555.653992,2573.294756 556.256855,2578.633219 504.430896,2584.453850"/>
    <poly id="464692512" type="amenity.parking" color="184,184,179" fill="1" layer="-1.00" shape="488.179029,2567.666051 487.518112,2561.836108 592.329945,2550.022404 592.990758,2555.852362 488.179029,2567.666051"/>
    <poly id="473779822" type="leisure.park" color="207,245,201" fill="1" layer="-2.00" shape="477.565098,2532.297120 475.138438,2509.830203 570.999444,2499.285461 573.409033,2520.472364 477.565098,2532.297120"/>
    <poly id="473779823" type="leisure.park" color="207,245,201" fill="1" layer="-2.00" shape="603.378867,2550.358831 592.511618,2462.977633 643.011349,2456.568150 648.066153,2546.135887 603.378867,2550.358831"/>
    <poly id="705939950" type="landuse.construction" color="194,194,130" fill="1" layer="-3.00" shape="210.586295,2589.384394 205.436197,2528.986860 244.162508,2525.618653 248.676937,2586.317666 210.586295,2589.384394"/>
    <poly id="79870330" type="building.yes" color="255,230,230" fill="1" layer="-1.00" shape="525.660744,2531.424927 542.278256,2529.277273 542.551454,2531.344748 544.727731,2548.162387 528.110643,2550.298918 525.660744,2531.424927"/>
    <poly id="79870331" type="building.yes" color="255,230,230" fill="1" layer="-1.00" shape="536.661960,2475.127651 558.750464,2472.751422 560.859038,2492.259323 538.770979,2494.624429 536.661960,2475.127651"/>
    <poly id="79870335" type="building.yes" color="255,230,230" fill="1" layer="-1.00" shape="561.703148,2548.218615 578.783809,2546.019812 576.316604,2527.000570 559.235888,2529.199383 561.703148,2548.218615"/>
    <poly id="79870337" type="building.yes" color="255,230,230" fill="1" layer="-1.00" shape="500.261703,2479.027892 520.079241,2476.898206 522.187943,2496.406090 502.363407,2498.524405 500.261703,2479.027892"/>
    <poly id="79870339" type="building.yes" color="255,230,230" fill="1" layer="-1.00" shape="483.456713,2390.424793 485.302035,2406.686142 488.207917,2406.371674 488.234682,2408.686801 489.287444,2411.258770 488.459211,2411.320075 477.248694,2412.246859 477.336792,2409.612917 474.174040,2409.818663 473.123111,2399.625370 474.052460,2399.656454 473.621228,2393.856451 472.516412,2391.505267 473.103388,2391.313503 483.456713,2390.424793"/>
    <poly id="79870342" type="building.yes" color="255,230,230" fill="1" layer="-1.00" shape="544.727731,2548.162387 545.018768,2550.363972 561.703148,2548.218615 559.235888,2529.199383 542.551454,2531.344748 544.727731,2548.162387"/>
    <poly id="79870346" type="building.yes" color="255,230,230" fill="1" layer="-1.00" shape="520.079241,2476.898206 536.661960,2475.127651 538.770979,2494.624429 522.187943,2496.406090 520.079241,2476.898206"/>
    <poly id="79870349" type="building.yes" color="255,230,230" fill="1" layer="-1.00" shape="578.783809,2546.019812 596.896041,2543.688692 594.436328,2524.669691 576.316604,2527.000570 578.783809,2546.019812"/>
    <poly id="79870350" type="building.yes" color="255,230,230" fill="1" layer="-1.00" shape="480.925947,2437.381364 480.559786,2437.424748 480.848255,2439.926647 482.032609,2450.135532 487.352523,2449.523523 486.965549,2446.183870 488.721631,2445.975583 488.929430,2447.773839 498.508331,2446.670114 498.341797,2445.195896 500.172228,2444.990100 500.513101,2447.927672 505.212592,2447.395060 503.832750,2435.466205 499.118008,2436.009435 499.232872,2437.025754 494.062754,2437.609385 493.859417,2435.900287 480.925947,2437.381364"/>
    <poly id="79870354" type="building.yes" color="255,230,230" fill="1" layer="-1.00" shape="496.528106,2554.371472 496.326264,2552.840441 493.702596,2553.175467 491.696795,2537.709820 494.058770,2537.410543 493.809346,2535.521885 510.351739,2533.393880 512.801315,2552.278977 496.528106,2554.371472"/>
    <poly id="79870357" type="building.yes" color="255,230,230" fill="1" layer="-1.00" shape="510.351739,2533.393880 525.660744,2531.424927 528.110643,2550.298918 512.801315,2552.278977 510.351739,2533.393880"/>
    <poly id="79870359" type="building.yes" color="255,230,230" fill="1" layer="-1.00" shape="480.312874,2367.588985 475.492134,2368.184322 475.715925,2369.282166 467.924605,2370.123065 469.015672,2372.217887 469.713823,2378.494113 468.609011,2378.590675 469.558099,2388.936326 472.864353,2388.668619 473.103388,2391.313503 483.456713,2390.424793 484.390151,2390.333628 483.245191,2387.847586 483.182365,2385.720396 480.460112,2385.885243 479.423685,2376.371127 481.236664,2376.242623 480.312874,2367.588985"/>
    <poly id="79870362" type="building.yes" color="255,230,230" fill="1" layer="-1.00" shape="488.459211,2411.320075 490.429036,2429.866446 493.175432,2429.646781 493.859417,2435.900287 480.925947,2437.381364 480.156818,2428.999925 478.341624,2429.195112 477.498513,2420.355028 478.431575,2420.274975 477.946822,2414.740208 476.737553,2412.174133 477.248694,2412.246859 488.459211,2411.320075"/>
    <poly id="79870366" type="building.yes" color="255,230,230" fill="1" layer="-1.00" shape="505.212592,2447.395060 505.241587,2447.640805 508.118083,2447.314239 516.792555,2446.324928 516.903327,2447.240976 527.684806,2446.010640 526.379353,2434.751833 523.682026,2435.062132 518.840146,2435.623344 518.742013,2434.774476 508.050105,2435.996701 507.934871,2434.991495 503.832750,2435.466205 505.212592,2447.395060"/>
    <poly id="80300557" type="building.yes" color="255,230,230" fill="1" layer="-1.00" shape="441.533577,2465.759494 438.222310,2436.353708 427.775406,2437.595400 428.472846,2444.116370 430.075028,2444.058685 431.393712,2459.378931 414.764530,2460.981346 415.358268,2467.710243 422.217137,2467.149633 422.260988,2465.838218 432.130537,2464.721852 432.393741,2466.644345 441.533577,2465.759494"/>
    <poly id="819579542" type="natural.tree_row" color="140,196,107" fill="0" layer="-4.00" shape="192.756510,2331.887591 199.146282,2388.165320"/>
    <poly id="87244186" type="building.yes" color="255,230,230" fill="1" layer="-1.00" shape="211.502608,2390.146792 220.692326,2389.330006 226.119692,2388.843729 227.948640,2388.682300 227.810879,2383.893481 226.922339,2373.950458 226.156599,2358.771152 228.343192,2359.044460 227.579314,2352.054015 231.404122,2351.191554 230.725992,2341.411325 211.119248,2342.347457 211.262388,2350.318514 213.630051,2351.187546 208.976311,2353.023680 209.277941,2356.026671 214.253722,2356.582276 214.397647,2357.844331 214.561277,2359.184926 209.116439,2360.193558 211.502608,2390.146792"/>
    <poi id="1361241387" type="amenity.kindergarten" color="237,199,199" layer="3.00" x="282.40" y="2570.09"/>
    <poi id="1485639708" type="amenity.car_sharing" color="237,199,199" layer="4.00" x="218.63" y="2391.24"/>
    <poi id="2129748503" type="shop.supermarket" color="237,199,255" layer="4.00" x="579.37" y="2437.36"/>
    <poi id="2682249046" type="amenity.kindergarten" color="237,199,199" layer="3.00" x="433.81" y="2519.14"/>
    <poi id="2682249047" type="amenity.kindergarten" color="237,199,199" layer="3.00" x="423.25" y="2551.10"/>
    <poi id="279830869" type="amenity.restaurant" color="237,199,199" layer="4.00" x="489.66" y="2534.59"/>
    <poi id="279831411" type="amenity.restaurant" color="237,199,199" layer="4.00" x="435.72" y="2455.33"/>
    <poi id="320389514" type="historic.memorial" color="128,255,128" layer="4.00" x="348.37" y="2682.96"/>
    <poi id="3280123219" type="amenity.vending_machine" color="237,199,199" layer="4.00" x="595.78" y="2451.27"/>
    <poi id="3280126491" type="amenity.bicycle_parking" color="237,199,199" layer="4.00" x="582.06" y="2449.72"/>
    <poi id="3280126492" type="amenity.bicycle_parking" color="237,199,199" layer="4.00" x="600.86" y="2449.58"/>
    <poi id="3280127028" type="amenity.bicycle_parking" color="237,199,199" layer="4.00" x="595.38" y="2449.86"/>
    <poi id="3280127029" type="natural.tree" color="140,196,107" layer="1.00" x="597.42" y="2449.55"/>
    <poi id="3280127116" type="amenity.vending_machine" color="237,199,199" layer="4.00" x="597.84" y="2459.07"/>
    <poi id="3351341122" type="shop.hairdresser" color="237,199,255" layer="4.00" x="511.65" y="2549.19"/>
    <poi id="3388856838" type="amenity.recycling" color="237,199,199" layer="4.00" x="454.69" y="2587.27"/>
    <poi id="3543835437" type="building.wayside_shrine" color="255,230,230" layer="4.00" x="221.83" y="2620.11"/>
    <poi id="3543835437#1" type="historic.wayside_shrine" color="128,255,128" layer="4.00" x="221.83" y="2620.11"/>
    <poi id="3674759852" type="amenity.waste_basket" color="237,199,199" layer="4.00" x="319.10" y="2689.54"/>
    <poi id="3683380097" type="leisure.pitch" color="207,245,201" layer="3.00" x="248.19" y="2697.04"/>
    <poi id="3683380097#1" type="sport.table_tennis" color="79,230,125" layer="3.00" x="248.19" y="2697.04"/>
    <poi id="3683380098" type="leisure.pitch" color="207,245,201" layer="3.00" x="250.91" y="2696.66"/>
    <poi id="3683380098#1" type="sport.table_tennis" color="79,230,125" layer="3.00" x="250.91" y="2696.66"/>
    <poi id="3683380099" type="leisure.pitch" color="207,245,201" layer="3.00" x="262.31" y="2695.35"/>
    <poi id="3683380099#1" type="sport.table_tennis" color="79,230,125" layer="3.00" x="262.31" y="2695.35"/>
    <poi id="3690981897" type="natural.tree" color="140,196,107" layer="1.00" x="297.46" y="2702.91"/>
    <poi id="3690981898" type="natural.tree" color="140,196,107" layer="1.00" x="298.08" y="2686.57"/>
    <poi id="3692834497" type="natural.tree" color="140,196,107" layer="1.00" x="252.79" y="2696.11"/>
    <poi id="3692834498" type="natural.tree" color="140,196,107" layer="1.00" x="267.61" y="2701.86"/>
    <poi id="374395522" type="amenity.recycling" color="237,199,199" layer="4.00" x="249.05" y="2584.66"/>
    <poi id="374395638" type="amenity.recycling" color="237,199,199" layer="4.00" x="226.76" y="2608.46"/>
    <poi id="450517327" type="leisure.pitch" color="207,245,201" layer="3.00" x="279.69" y="2470.08"/>
    <poi id="450517327#1" type="sport.basketball" color="79,230,125" layer="3.00" x="279.69" y="2470.08"/>
    <poi id="450517329" type="amenity.bench" color="237,199,199" layer="4.00" x="340.53" y="2537.03"/>
    <poi id="450517330" type="amenity.bench" color="237,199,199" layer="4.00" x="394.26" y="2635.88"/>
    <poi id="450517331" type="amenity.bench" color="237,199,199" layer="4.00" x="377.45" y="2681.07"/>
    <poi id="450517332" type="amenity.bench" color="237,199,199" layer="4.00" x="318.44" y="2684.63"/>
    <poi id="450517333" type="amenity.bench" color="237,199,199" layer="4.00" x="316.21" y="2654.06"/>
    <poi id="450517334" type="amenity.bench" color="237,199,199" layer="4.00" x="373.31" y="2652.50"/>
    <poi id="450517335" type="amenity.bench" color="237,199,199" layer="4.00" x="462.84" y="2665.21"/>
    <poi id="450517336" type="amenity.bench" color="237,199,199" layer="4.00" x="465.27" y="2689.54"/>
    <poi id="4678256785" type="leisure.playground" color="207,245,201" layer="3.00" x="529.75" y="2516.43"/>
    <poi id="5149494580" type="amenity.doctors" color="237,199,199" layer="4.00" x="586.00" y="2541.02"/>
    <poi id="6251105217" type="amenity.doctors" color="237,199,199" layer="4.00" x="568.88" y="2540.28"/>