<?xml version="1.0" encoding="UTF-8"?>

<routes xmlns:xsi="http://www.w3.org/2001/XMLSchema-instance" xsi:noNamespaceSchemaLocation="http://sumo.dlr.de/xsd/routes_file.xsd">

<vType id="ped_pedestrian" vClass="pedestrian"/>
<vType id="car_vh" accel="0.8" decel="4.5" sigma="0.5" length="5" maxSpeed="70"/>
 
<person id="ped0" depart="0.00" type="ped_pedestrian">
<walk from="19683798#3" to="19683397#5"/>
</person>
<person id="ped1" depart="0.01" type="ped_pedestrian">
<walk from="19683397#5" to="82790717#0"/>
</person>
<person id="ped2" depart="0.02" type="ped_pedestrian">
<walk from="-19683210#1" to="364097598#0"/>
</person>
<person id="ped3" depart="0.03" type="ped_pedestrian">
<walk from="19683798#3" to="-82790717#4"/>
</person>
<person id="ped4" depart="0.04" type="ped_pedestrian">
<walk from="19683397#5" to="19683397#5"/>
</person>
<person id="ped5" depart="0.05" type="ped_pedestrian">
<walk from="364097598#0" to="-19683210#1"/>
</person>
<person id="ped6" depart="0.06" type="ped_pedestrian">
<walk from="19683798#3" to="559194509#0"/>
</person>
<person id="ped7" depart="0.07" type="ped_pedestrian">
<walk from="19683798#3" to="19683798#3"/>
</person>
<person id="ped8" depart="0.08" type="ped_pedestrian">
<walk from="19683397#5" to="82790717#0"/>
</person>
<person id="ped9" depart="0.09" type="ped_pedestrian">
<walk from="-19683210#1" to="559194509#0"/>
</person>
<person id="ped10" depart="0.10" type="ped_pedestrian">
<walk from="19683210#1" to="19683397#5"/>
</person>
<person id="ped11" depart="0.11" type="ped_pedestrian">
<walk from="19683798#3" to="19683397#5"/>
</person>
<person id="ped12" depart="0.12" type="ped_pedestrian">
<walk from="-19683210#1" to="364097598#0"/>
</person>
<person id="ped13" depart="0.13" type="ped_pedestrian">
<walk from="19683210#1" to="19683397#5"/>
</person>
<person id="ped14" depart="0.14" type="ped_pedestrian">
<walk from="19683210#1" to="19683871#3"/>
</person>
<person id="ped15" depart="0.15" type="ped_pedestrian">
<walk from="19683210#1" to="19683397#5"/>
</person>
<person id="ped16" depart="0.16" type="ped_pedestrian">
<walk from="-19683210#1" to="82790717#0"/>
</person>
<person id="ped17" depart="0.17" type="ped_pedestrian">
<walk from="19683798#3" to="559194509#0"/>
</person>
<person id="ped18" depart="0.18" type="ped_pedestrian">
<walk from="559194509#0" to="-19683210#1"/>
</person>
<person id="ped19" depart="0.19" type="ped_pedestrian">
<walk from="82790717#0" to="19683397#5"/>
</person>
<person id="ped20" depart="0.20" type="ped_pedestrian">
<walk from="82790717#0" to="559194509#0"/>
</person>
<person id="ped21" depart="0.21" type="ped_pedestrian">
<walk from="559194509#0" to="19683397#5"/>
</person>
<person id="ped22" depart="0.22" type="ped_pedestrian">
<walk from="-19683210#1" to="19683397#5"/>
</person>
<person id="ped23" depart="0.23" type="ped_pedestrian">
<walk from="-82790717#4" to="19683397#5"/>
</person>
<person id="ped24" depart="0.24" type="ped_pedestrian">
<walk from="19683798#3" to="19683397#5"/>
</person>
<person id="ped25" depart="0.25" type="ped_pedestrian">
<walk from="19683210#1" to="19683210#1"/>
</person>
<person id="ped26" depart="0.26" type="ped_pedestrian">
<walk from="19683397#5" to="82790717#0"/>
</person>
<person id="ped27" depart="0.27" type="ped_pedestrian">
<walk from="364097598#0" to="-19683210#1"/>
</person>
<person id="ped28" depart="0.28" type="ped_pedestrian">
<walk from="364097598#0" to="19683397#5"/>
</person>
<person id="ped29" depart="0.29" type="ped_pedestrian">
<walk from="19683798#3" to="19683397#5"/>
</person>
<person id="ped30" depart="0.30" type="ped_pedestrian">
<walk from="-19683210#1" to="19683397#5"/>
</person>
<person id="ped31" depart="0.31" type="ped_pedestrian">
<walk from="-82790717#4" to="-19683210#1"/>
</person>
<person id="ped32" depart="0.32" type="ped_pedestrian">
<walk from="19683871#3" to="19683397#5"/>
</person>
<person id="ped33" depart="0.33" type="ped_pedestrian">
<walk from="82790717#0" to="19683397#5"/>
</person>
<person id="ped34" depart="0.34" type="ped_pedestrian">
<walk from="364097598#0" to="19683210#1"/>
</person>
<person id="ped35" depart="0.35" type="ped_pedestrian">
<walk from="-82790717#4" to="19683798#3"/>
</person>
<person id="ped36" depart="0.36" type="ped_pedestrian">
<walk from="19683397#5" to="19683798#3"/>
</person>
<person id="ped37" depart="0.37" type="ped_pedestrian">
<walk from="19683210#1" to="-82790717#4"/>
</person>
<person id="ped38" depart="0.38" type="ped_pedestrian">
<walk from="19683871#3" to="-19683210#1"/>
</person>
<person id="ped39" depart="0.39" type="ped_pedestrian">
<walk from="82790717#0" to="82790717#0"/>
</person>
<person id="ped40" depart="0.40" type="ped_pedestrian">
<walk from="-19683210#1" to="82790717#0"/>
</person>
<person id="ped41" depart="0.41" type="ped_pedestrian">
<walk from="19683798#3" to="19683871#3"/>
</person>
<person id="ped42" depart="0.42" type="ped_pedestrian">
<walk from="-82790717#4" to="559194509#0"/>
</person>
<person id="ped43" depart="0.43" type="ped_pedestrian">
<walk from="82790717#0" to="-19683210#1"/>
</person>
<person id="ped44" depart="0.44" type="ped_pedestrian">
<walk from="19683798#3" to="19683871#3"/>
</person>
<person id="ped45" depart="0.45" type="ped_pedestrian">
<walk from="19683871#3" to="19683397#5"/>
</person>
<person id="ped46" depart="0.46" type="ped_pedestrian">
<walk from="19683397#5" to="19683397#5"/>
</person>
<person id="ped47" depart="0.47" type="ped_pedestrian">
<walk from="19683798#3" to="559194509#0"/>
</person>
<person id="ped48" depart="0.48" type="ped_pedestrian">
<walk from="559194509#0" to="19683397#5"/>
</person>
<person id="ped49" depart="0.49" type="ped_pedestrian">
<walk from="82790717#0" to="-19683210#1"/>
</person>
<person id="ped50" depart="0.50" type="ped_pedestrian">
<walk from="-82790717#4" to="82790717#0"/>
</person>
<person id="ped51" depart="0.51" type="ped_pedestrian">
<walk from="-19683210#1" to="19683397#5"/>
</person>
<person id="ped52" depart="0.52" type="ped_pedestrian">
<walk from="19683397#5" to="-82790717#4"/>
</person>
<person id="ped53" depart="0.53" type="ped_pedestrian">
<walk from="82790717#0" to="19683397#5"/>
</person>
<person id="ped54" depart="0.54" type="ped_pedestrian">
<walk from="19683397#5" to="19683210#1"/>
</person>
<person id="ped55" depart="0.55" type="ped_pedestrian">
<walk from="19683798#3" to="19683871#3"/>
</person>
<person id="ped56" depart="0.56" type="ped_pedestrian">
<walk from="-82790717#4" to="-19683210#1"/>
</person>
<person id="ped57" depart="0.57" type="ped_pedestrian">
<walk from="82790717#0" to="-19683210#1"/>
</person>
<person id="ped58" depart="0.58" type="ped_pedestrian">
<walk from="559194509#0" to="19683397#5"/>
</person>
<person id="ped59" depart="0.59" type="ped_pedestrian">
<walk from="19683210#1" to="19683210#1"/>
</person>
<person id="ped60" depart="0.60" type="ped_pedestrian">
<walk from="19683397#5" to="19683871#3"/>
</person>
<person id="ped61" depart="0.61" type="ped_pedestrian">
<walk from="364097598#0" to="-82790717#4"/>
</person>
<person id="ped62" depart="0.62" type="ped_pedestrian">
<walk from="19683397#5" to="82790717#0"/>
</person>
<person id="ped63" depart="0.63" type="ped_pedestrian">
<walk from="19683210#1" to="19683397#5"/>
</person>
<person id="ped64" depart="0.64" type="ped_pedestrian">
<walk from="19683210#1" to="19683798#3"/>
</person>
<person id="ped65" depart="0.65" type="ped_pedestrian">
<walk from="19683210#1" to="-82790717#4"/>
</person>
<person id="ped66" depart="0.66" type="ped_pedestrian">
<walk from="19683798#3" to="19683397#5"/>
</person>
<person id="ped67" depart="0.67" type="ped_pedestrian">
<walk from="19683798#3" to="19683397#5"/>
</person>
<person id="ped68" depart="0.68" type="ped_pedestrian">
<walk from="-82790717#4" to="-82790717#4"/>
</person>
<person id="ped69" depart="0.69" type="ped_pedestrian">
<walk from="19683397#5" to="19683798#3"/>
</person>
<person id="ped70" depart="0.70" type="ped_pedestrian">
<walk from="559194509#0" to="19683397#5"/>
</person>
<person id="ped71" depart="0.71" type="ped_pedestrian">
<walk from="559194509#0" to="-19683210#1"/>
</person>
<person id="ped72" depart="0.72" type="ped_pedestrian">
<walk from="-19683210#1" to="-19683210#1"/>
</person>
<person id="ped73" depart="0.73" type="ped_pedestrian">
<walk from="559194509#0" to="19683871#3"/>
</person>
<person id="ped74" depart="0.74" type="ped_pedestrian">
<walk from="19683397#5" to="364097598#0"/>
</person>
<person id="ped75" depart="0.75" type="ped_pedestrian">
<walk from="19683397#5" to="19683397#5"/>
</person>
<person id="ped76" depart="0.76" type="ped_pedestrian">
<walk from="364097598#0" to="19683210#1"/>
</person>
<person id="ped77" depart="0.77" type="ped_pedestrian">
<walk from="82790717#0" to="19683798#3"/>
</person>
<person id="ped78" depart="0.78" type="ped_pedestrian">
<walk from="82790717#0" to="82790717#0"/>
</person>
<person id="ped79" depart="0.79" type="ped_pedestrian">
<walk from="-19683210#1" to="19683210#1"/>
</person>
<person id="ped80" depart="0.80" type="ped_pedestrian">
<walk from="364097598#0" to="19683397#5"/>
</person>
<person id="ped81" depart="0.81" type="ped_pedestrian">
<walk from="19683871#3" to="559194509#0"/>
</person>
<person id="ped82" depart="0.82" type="ped_pedestrian">
<walk from="19683397#5" to="19683397#5"/>
</person>
<person id="ped83" depart="0.83" type="ped_pedestrian">
<walk from="19683871#3" to="559194509#0"/>
</person>
<person id="ped84" depart="0.84" type="ped_pedestrian">
<walk from="-19683210#1" to="19683397#5"/>
</person>
<person id="ped85" depart="0.85" type="ped_pedestrian">
<walk from="-82790717#4" to="19683798#3"/>
</person>
<person id="ped86" depart="0.86" type="ped_pedestrian">
<walk from="19683798#3" to="559194509#0"/>
</person>
<person id="ped87" depart="0.87" type="ped_pedestrian">
<walk from="-19683210#1" to="19683871#3"/>
</person>
<person id="ped88" depart="0.88" type="ped_pedestrian">
<walk from="19683210#1" to="364097598#0"/>
</person>
<person id="ped89" depart="0.89" type="ped_pedestrian">
<walk from="364097598#0" to="-82790717#4"/>
</person>
<person id="ped90" depart="0.90" type="ped_pedestrian">
<walk from="19683871#3" to="364097598#0"/>
</person>
<person id="ped91" depart="0.91" type="ped_pedestrian">
<walk from="82790717#0" to="82790717#0"/>
</person>
<person id="ped92" depart="0.92" type="ped_pedestrian">
<walk from="19683397#5" to="-19683210#1"/>
</person>
<person id="ped93" depart="0.93" type="ped_pedestrian">
<walk from="19683210#1" to="19683798#3"/>
</person>
<person id="ped94" depart="0.94" type="ped_pedestrian">
<walk from="19683798#3" to="19683210#1"/>
</person>
<person id="ped95" depart="0.95" type="ped_pedestrian">
<walk from="364097598#0" to="559194509#0"/>
</person>
<person id="ped96" depart="0.96" type="ped_pedestrian">
<walk from="19683798#3" to="82790717#0"/>
</person>
<person id="ped97" depart="0.97" type="ped_pedestrian">
<walk from="559194509#0" to="-19683210#1"/>
</person>
<person id="ped98" depart="0.98" type="ped_pedestrian">
<walk from="-19683210#1" to="19683210#1"/>
</person>
<person id="ped99" depart="0.99" type="ped_pedestrian">
<walk from="19683397#5" to="19683397#5"/>
</person>




</routes>
