<?xml version="1.0" encoding="UTF-8"?>

<!-- generated on Thu Nov 28 12:35:38 2019 by Eclipse SUMO netconvert Version 1.0.1
<configuration xmlns:xsi="http://www.w3.org/2001/XMLSchema-instance" xsi:noNamespaceSchemaLocation="http://sumo.dlr.de/xsd/netconvertConfiguration.xsd">

    <input>
        <sumo-net-file value="mf_base.net.xml"/>
    </input>

    <output>
        <plain-output-prefix value="plain"/>
    </output>

    <processing>
        <offset.disable-normalization value="true"/>
        <lefthand value="false"/>
    </processing>

    <junctions>
        <no-turnarounds value="true"/>
        <junctions.corner-detail value="5"/>
        <junctions.limit-turn-speed value="5.5"/>
        <rectangular-lane-cut value="false"/>
    </junctions>

    <pedestrian>
        <walkingareas value="false"/>
    </pedestrian>

</configuration>
-->

<edges version="1.0" xmlns:xsi="http://www.w3.org/2001/XMLSchema-instance" xsi:noNamespaceSchemaLocation="http://sumo.dlr.de/xsd/edges_file.xsd">
    <edge id="-101220845" from="cluster_cluster_2203963782_cluster_371663701_6578727_gneJ118_gneJ141" to="614343873" priority="1" type="highway.cycleway" numLanes="1" speed="8.33" shape="860.00,2184.84 861.20,2270.68" width="1.00" allow="bicycle"/>
    <edge id="-155546685" from="cluster_cluster_45334608_gneJ115_gneJ126_gneJ127" to="cluster_2064177032_260827627_3392905427_3746970764" priority="3" type="highway.residential" numLanes="2" speed="8.33" shape="1029.87,2078.32 1001.64,2072.94 972.55,2070.49 926.93,2070.52">
        <lane index="0" allow="pedestrian" width="2.00"/>
        <lane index="1" disallow="tram rail_urban rail rail_electric pedestrian ship"/>
    </edge>
    <edge id="-155546690" from="cluster_45341878_gneJ121_gneJ123" to="cluster_45338551_gneJ122" priority="3" type="highway.residential" numLanes="2" speed="8.33" shape="1002.38,2159.59 1010.83,2161.61 1149.75,2116.73" spreadType="center">
        <lane index="0" allow="pedestrian" width="2.00"/>
        <lane index="1" disallow="tram rail_urban rail rail_electric pedestrian ship"/>
    </edge>
    <edge id="-155546691" from="260827624" to="cluster_45341878_gneJ121_gneJ123" priority="3" type="highway.residential" numLanes="2" speed="8.33" shape="960.06,2174.70 995.25,2165.30 1003.22,2164.72">
        <lane index="0" allow="pedestrian" width="2.00"/>
        <lane index="1" disallow="tram rail_urban rail rail_electric pedestrian ship"/>
    </edge>
    <edge id="-155546692" from="cluster_45341878_gneJ121_gneJ123" to="cluster_45310085_gneJ124" priority="3" type="highway.residential" numLanes="2" speed="8.33" shape="1006.01,2172.24 989.90,2231.35" spreadType="center">
        <lane index="0" allow="pedestrian" width="2.00"/>
        <lane index="1" disallow="tram rail_urban rail rail_electric pedestrian ship"/>
    </edge>
    <edge id="-155548874" from="j001" to="j004" priority="3" type="highway.residential" numLanes="2" speed="13.89" shape="902.37,2009.59 886.65,2013.84">
        <lane index="0" allow="pedestrian" width="2.00"/>
        <lane index="1" disallow="tram rail_urban rail rail_electric pedestrian ship"/>
    </edge>
    <edge id="-155548876" from="cluster_45334623_gneJ125" to="cluster_cluster_45334608_gneJ115_gneJ126_gneJ127" priority="3" type="highway.residential" numLanes="2" speed="8.33" shape="1134.56,2077.09 1128.84,2077.42 1100.11,2085.54 1080.78,2087.84 1054.04,2086.66 1029.34,2081.42" spreadType="center">
        <lane index="0" allow="pedestrian" width="2.00"/>
        <lane index="1" disallow="tram rail_urban rail rail_electric pedestrian ship"/>
    </edge>
    <edge id="-157964859#0" from="j004" to="1404411555" priority="3" type="highway.residential" numLanes="1" speed="13.89" shape="849.12,2023.60 832.29,2026.33" disallow="tram rail_urban rail rail_electric pedestrian ship"/>
    <edge id="-158399739#0" from="cluster_cluster_cluster_cluster_312385387_gneJ0_gneJ3_gneJ25_gneJ80_gneJ91" to="cluster_cluster_27194092_gneJ1_gneJ4_gneJ7_gneJ107" priority="3" type="highway.residential" numLanes="2" speed="13.89" shape="971.85,1907.15 1018.94,1887.66" spreadType="center">
        <lane index="0" allow="pedestrian" width="2.00"/>
        <lane index="1" disallow="tram rail_urban rail rail_electric pedestrian ship"/>
    </edge>
    <edge id="-158399739#1" from="cluster_cluster_cluster_cluster_2607185468_cluster_27194225_gneJ2_gneJ9_gneJ21_gneJ73_gneJ79_gneJ90" to="cluster_cluster_cluster_cluster_312385387_gneJ0_gneJ3_gneJ25_gneJ80_gneJ91" priority="3" type="highway.residential" numLanes="2" speed="13.89" shape="945.44,1912.55 972.68,1906.89" spreadType="center">
        <lane index="0" allow="pedestrian" width="2.00"/>
        <lane index="1" disallow="tram rail_urban rail rail_electric pedestrian ship"/>
    </edge>
    <edge id="-158399779#0" from="cluster_cluster_27194092_gneJ1_gneJ4_gneJ7_gneJ107" to="cluster_cluster_1987363467_27194086_gneJ5_gneJ116" priority="3" type="highway.residential" numLanes="2" speed="8.33" shape="1026.54,1890.04 1058.28,1965.83" spreadType="center">
        <lane index="0" allow="pedestrian" width="2.00"/>
        <lane index="1" disallow="tram rail_urban rail rail_electric pedestrian ship"/>
    </edge>
    <edge id="-158399779#1" from="cluster_cluster_27154463_gneJ6_gneJ82" to="cluster_cluster_27194092_gneJ1_gneJ4_gneJ7_gneJ107" priority="3" type="highway.residential" numLanes="2" speed="8.33" shape="977.51,1790.14 994.16,1821.27 1026.63,1889.76" spreadType="center">
        <lane index="0" allow="pedestrian" width="2.00"/>
        <lane index="1" disallow="tram rail_urban rail rail_electric pedestrian ship"/>
    </edge>
    <edge id="-160565852" from="cluster_cluster_27154465_gneJ8_gneJ74_gneJ78" to="cluster_cluster_cluster_cluster_2607185468_cluster_27194225_gneJ2_gneJ9_gneJ21_gneJ73_gneJ79_gneJ90" priority="3" type="highway.residential" numLanes="2" speed="13.89" shape="925.64,1812.12 935.37,1851.14 941.63,1876.25 951.63,1916.36" spreadType="center">
        <lane index="0" allow="pedestrian" width="2.00"/>
        <lane index="1" disallow="tram rail_urban rail rail_electric pedestrian ship"/>
    </edge>
    <edge id="-210310284" from="cluster_cluster_2203963782_cluster_371663701_6578727_gneJ118_gneJ141" to="gneJ119" priority="1" type="highway.footway" numLanes="1" speed="2.78" shape="857.79,2184.94 858.11,2194.58 859.95,2246.66 860.10,2278.30 860.17,2293.90 861.27,2304.26" spreadType="center" width="2.00" allow="pedestrian"/>
    <edge id="-243544432" from="2509348140" to="2509348138" priority="1" type="highway.service" numLanes="1" speed="5.56" allow="delivery bicycle pedestrian"/>
    <edge id="-244544045#2" from="2518516445" to="j003" priority="1" type="highway.service" numLanes="1" speed="5.56" shape="817.47,1929.84 840.68,1924.58 848.45,1923.37" allow="delivery bicycle pedestrian"/>
    <edge id="-244544045#3" from="2509348138" to="2518516445" priority="1" type="highway.service" numLanes="1" speed="5.56" shape="753.53,1953.82 752.14,1947.73 817.47,1929.84" allow="delivery bicycle pedestrian"/>
    <edge id="-244544046" from="2518516445" to="2509348140" priority="1" type="highway.service" numLanes="1" speed="5.56" shape="817.47,1929.84 819.59,1962.83 773.54,1974.77 759.97,1974.54 758.26,1969.98" allow="delivery bicycle pedestrian"/>
    <edge id="-254945243" from="cluster_cluster_cluster_cluster_2607185468_cluster_27194225_gneJ2_gneJ9_gneJ21_gneJ73_gneJ79_gneJ90" to="cluster_cluster_3691000711_gneJ18_gneJ96" priority="1" type="highway.footway" numLanes="1" speed="2.78" shape="940.47,1917.21 942.17,1922.86 946.35,1958.45 958.46,1993.84" spreadType="center" width="2.00" allow="pedestrian"/>
    <edge id="-288092849#0" from="3746906183" to="j004" priority="1" type="highway.cycleway" numLanes="1" speed="8.33" shape="852.88,1936.22 854.51,1996.58 853.58,2006.44 857.62,2015.63" width="1.00" allow="bicycle"/>
    <edge id="-288092849#1" from="j003" to="3746906183" priority="1" type="highway.cycleway" numLanes="1" speed="8.33" shape="852.86,1922.69 852.88,1936.22" width="1.00" allow="bicycle"/>
    <edge id="-288092849#2" from="371644443" to="j003" priority="1" type="highway.cycleway" numLanes="1" speed="8.33" shape="799.86,1732.52 804.47,1748.21 835.27,1852.92 846.18,1889.17 852.46,1918.21 852.86,1922.69" width="1.00" allow="bicycle"/>
    <edge id="-305457071" from="3100813935" to="cluster_3100814033_3100831730_4738777392_4738777393" priority="1" type="highway.service" numLanes="1" speed="5.56" shape="746.22,2255.45 746.07,2248.41 736.29,2247.95 736.62,2227.40 766.05,2226.76" allow="delivery bicycle pedestrian"/>
    <edge id="-308384337#0" from="3136710229" to="j005" priority="1" type="highway.service" numLanes="2" speed="5.56" shape="822.75,2122.09 822.92,2118.74 822.53,2104.11 835.53,2102.08 850.42,2101.31">
        <lane index="0" allow="pedestrian" width="2.00"/>
        <lane index="1" allow="passenger delivery"/>
    </edge>
    <edge id="-308384337#1" from="3136710630" to="3136710229" priority="1" type="highway.service" numLanes="2" speed="5.56" shape="824.81,2132.23 829.21,2131.54 831.91,2127.19 830.50,2122.89 827.24,2121.05 822.75,2122.09">
        <lane index="0" allow="pedestrian" width="2.00"/>
        <lane index="1" allow="delivery bicycle"/>
    </edge>
    <edge id="-308384337#2" from="3136710229" to="3136710630" priority="1" type="highway.service" numLanes="2" speed="5.56" shape="822.75,2122.09 820.79,2124.71 820.56,2127.81 822.13,2130.72 824.81,2132.23">
        <lane index="0" allow="pedestrian" width="2.00"/>
        <lane index="1" allow="delivery bicycle"/>
    </edge>
    <edge id="-308384344#0" from="cluster_3136711129_gneJ120_gneJ123_gneJ125" to="cluster_3136710929_gneJ121_gneJ140_gneJ143" priority="1" type="highway.footway" numLanes="1" speed="2.78" shape="817.14,2148.44 824.38,2146.26 836.72,2148.20 842.30,2152.97 852.12,2150.18" spreadType="center" width="2.00" allow="pedestrian"/>
    <edge id="-308384344#1" from="cluster_3136710231_gneJ122" to="cluster_3136711129_gneJ120_gneJ123_gneJ125" priority="1" type="highway.footway" numLanes="1" speed="2.78" shape="800.65,2179.49 798.43,2166.74 798.62,2160.95 805.10,2155.27 810.97,2152.54 816.31,2148.87" spreadType="center" width="2.00" allow="pedestrian"/>
    <edge id="-31344484" from="cluster_1987363465_cluster_45321481_gneJ38" to="cluster_cluster_1987363467_27194086_gneJ5_gneJ116" priority="3" type="highway.residential" numLanes="2" speed="8.33" shape="1079.99,1956.54 1053.50,1967.89">
        <lane index="0" allow="pedestrian" width="2.00"/>
        <lane index="1" disallow="tram rail_urban rail rail_electric pedestrian ship"/>
    </edge>
    <edge id="-332176204" from="cluster_45334623_gneJ125" to="2579753000" priority="3" type="highway.residential" numLanes="2" speed="8.33" shape="1131.92,2072.88 1129.12,2066.29 1089.88,1978.64">
        <lane index="0" allow="pedestrian" width="2.00"/>
        <lane index="1" disallow="tram rail_urban rail rail_electric pedestrian ship"/>
    </edge>
    <edge id="-332176207" from="372811156" to="cluster_1644583591_2042190232" priority="1" type="highway.cycleway" numLanes="1" speed="8.33" shape="888.88,2276.83 886.78,2182.58 886.82,2179.61" width="1.00" allow="bicycle"/>
    <edge id="-332176208#1" from="cluster_cluster_1078797621_cluster_28092165_3050661415_3392905426_3689041237_5174766995_gneJ128_gneJ131_gneJ134_gneJ137" to="j004" priority="1" type="highway.footway" numLanes="1" speed="2.78" shape="806.00,2037.25 848.80,2029.47" spreadType="center" width="2.00" allow="pedestrian"/>
    <edge id="-33487023#0" from="3746970769" to="cluster_cluster_2203963782_cluster_371663701_6578727_gneJ118_gneJ141" priority="1" type="highway.cycleway" numLanes="1" speed="8.33" shape="858.88,2132.42 860.00,2184.84" width="1.00" allow="bicycle"/>
    <edge id="-33487023#1" from="j005" to="3746970769" priority="1" type="highway.cycleway" numLanes="1" speed="8.33" shape="862.44,2095.41 858.88,2132.42" width="1.00" allow="bicycle"/>
    <edge id="-33487023#4" from="1156427688" to="j005" priority="1" type="highway.cycleway" numLanes="1" speed="8.33" shape="857.13,2050.33 858.12,2093.27" width="1.00" allow="bicycle"/>
    <edge id="-33487023#5" from="j004" to="1156427688" priority="1" type="highway.cycleway" numLanes="1" speed="8.33" shape="857.47,2033.50 857.13,2050.33" width="1.00" allow="bicycle"/>
    <edge id="-33487025#0" from="j002" to="371644475" priority="1" type="highway.cycleway" numLanes="1" speed="8.33" shape="877.64,1923.68 876.41,1918.54 859.83,1857.88 852.76,1835.57 849.13,1823.07 827.36,1741.68 821.89,1721.22" width="1.00" allow="bicycle"/>
    <edge id="-33487025#1" from="j001" to="j002" priority="1" type="highway.cycleway" numLanes="1" speed="8.33" shape="902.37,2009.59 884.54,1962.40 879.26,1941.22 877.64,1923.68" width="1.00" allow="bicycle"/>
    <edge id="-33487026#1" from="6578728" to="cluster_cluster_2203963782_cluster_371663701_6578727_gneJ118_gneJ141" priority="3" type="highway.residential" numLanes="1" speed="8.33" shape="771.45,2188.15 853.79,2185.07" disallow="tram rail_urban rail rail_electric pedestrian ship"/>
    <edge id="-33487026#2" from="457516630" to="6578728" priority="3" type="highway.residential" numLanes="1" speed="8.33" disallow="tram rail_urban rail rail_electric pedestrian ship"/>
    <edge id="-33487027" from="1404411555" to="cluster_cluster_1078797621_cluster_28092165_3050661415_3392905426_3689041237_5174766995_gneJ128_gneJ131_gneJ134_gneJ137" priority="3" type="highway.residential" numLanes="1" speed="13.89" shape="832.29,2026.33 806.90,2031.80" disallow="tram rail_urban rail rail_electric pedestrian ship"/>
    <edge id="-33487028#1" from="cluster_cluster_3691000711_gneJ18_gneJ96" to="j001" priority="3" type="highway.residential" numLanes="3" speed="8.33" shape="953.37,1998.50 909.49,2008.00">
        <lane index="0" allow="pedestrian" width="2.00"/>
        <lane index="1" disallow="tram rail_urban rail rail_electric pedestrian ship" width="2.00"/>
        <lane index="2" disallow="tram rail_urban rail rail_electric pedestrian ship"/>
    </edge>
    <edge id="-33487028#2" from="2904937024" to="cluster_cluster_3691000711_gneJ18_gneJ96" priority="3" type="highway.residential" numLanes="2" speed="8.33" shape="996.63,1986.79 985.85,1990.07 964.55,1995.60 953.37,1998.50">
        <lane index="0" allow="pedestrian" width="2.00"/>
        <lane index="1" disallow="tram rail_urban rail rail_electric pedestrian ship"/>
    </edge>
    <edge id="-33487028#3" from="cluster_cluster_312385385_gneJ24_gneJ94" to="2904937024" priority="3" type="highway.residential" numLanes="2" speed="8.33" shape="1005.60,1983.76 996.63,1986.79">
        <lane index="0" allow="pedestrian" width="2.00"/>
        <lane index="1" disallow="tram rail_urban rail rail_electric pedestrian ship"/>
    </edge>
    <edge id="-33487028#4" from="cluster_cluster_1987363467_27194086_gneJ5_gneJ116" to="cluster_cluster_312385385_gneJ24_gneJ94" priority="3" type="highway.residential" numLanes="2" speed="8.33" shape="1053.50,1967.89 1005.60,1983.76">
        <lane index="0" allow="pedestrian" width="2.00"/>
        <lane index="1" disallow="tram rail_urban rail rail_electric pedestrian ship"/>
    </edge>
    <edge id="-33487030#0" from="2962877945" to="j001" priority="1" type="highway.cycleway" numLanes="1" speed="8.33" shape="905.32,2071.37 910.59,2058.84 911.72,2056.80 912.29,2054.99 912.24,2053.62 911.97,2051.98 906.39,2032.66 902.37,2009.59" width="1.00" allow="bicycle"/>
    <edge id="-33487030#2" from="2640786637" to="2962877945" priority="1" type="highway.cycleway" numLanes="1" speed="8.33" width="1.00" allow="bicycle"/>
    <edge id="-33487030#3" from="j005" to="2640786637" priority="1" type="highway.cycleway" numLanes="1" speed="8.33" shape="887.41,2097.64 906.34,2086.91" width="1.00" allow="bicycle"/>
    <edge id="-364876164" from="cluster_3112873735_gneJ130" to="cluster_cluster_1078797621_cluster_28092165_3050661415_3392905426_3689041237_5174766995_gneJ128_gneJ131_gneJ134_gneJ137" priority="1" type="highway.footway" numLanes="1" speed="2.78" shape="726.23,2054.97 800.71,2043.30 805.48,2037.39" spreadType="center" width="2.00" allow="pedestrian"/>
    <edge id="-371076640#0" from="gneJ132" to="cluster_3746970770_gneJ133_gneJ142_gneJ145" priority="1" type="highway.footway" numLanes="1" speed="2.78" shape="858.96,2136.42 854.11,2132.52 852.15,2136.60" spreadType="center" width="2.00" allow="pedestrian"/>
    <edge id="-371746586#0" from="cluster_3136710929_gneJ121_gneJ140_gneJ143" to="cluster_cluster_2203963782_cluster_371663701_6578727_gneJ118_gneJ141" priority="1" type="highway.footway" numLanes="1" speed="2.78" shape="856.69,2154.00 857.79,2184.93" spreadType="center" width="2.00" allow="pedestrian"/>
    <edge id="-371746586#1" from="cluster_3746970770_gneJ133_gneJ142_gneJ145" to="cluster_3136710929_gneJ121_gneJ140_gneJ143" priority="1" type="highway.footway" numLanes="1" speed="2.78" shape="856.00,2132.48 855.95,2142.25 856.69,2154.00" spreadType="center" width="2.00" allow="pedestrian"/>
    <edge id="-371746586#2" from="j005" to="cluster_3746970770_gneJ133_gneJ142_gneJ145" priority="1" type="highway.footway" numLanes="1" speed="2.78" shape="857.76,2098.41 855.99,2132.29" spreadType="center" width="2.00" allow="pedestrian"/>
    <edge id="-371746586#4" from="j004" to="j005" priority="1" type="highway.footway" numLanes="1" speed="2.78" shape="853.59,2033.17 853.57,2050.73 854.99,2097.56 854.40,2101.67" spreadType="center" width="2.00" allow="pedestrian"/>
    <edge id="-371746586#9" from="j003" to="j004" priority="1" type="highway.footway" numLanes="1" speed="2.78" shape="852.45,1923.50 851.17,1961.95 850.83,1993.22 851.48,2015.86" spreadType="center" width="2.00" allow="pedestrian"/>
    <edge id="-41726075" from="cluster_cluster_cluster_cluster_312385387_gneJ0_gneJ3_gneJ25_gneJ80_gneJ91" to="cluster_cluster_312385385_gneJ24_gneJ94" priority="1" type="highway.footway" numLanes="1" speed="2.78" shape="974.03,1911.28 992.93,1941.43 1009.34,1982.33" spreadType="center" width="2.00" allow="pedestrian"/>
    <edge id="-421145355#0" from="506827152" to="4209636487" priority="3" type="highway.residential" numLanes="1" speed="8.33" shape="966.22,2235.66 967.77,2245.77 968.84,2255.00 969.36,2258.86 967.11,2270.15" disallow="tram rail_urban rail rail_electric pedestrian ship"/>
    <edge id="-421145355#1" from="cluster_45310085_gneJ124" to="506827152" priority="3" type="highway.residential" numLanes="2" speed="8.33" shape="984.86,2230.06 966.22,2235.66">
        <lane index="0" allow="pedestrian" width="2.00"/>
        <lane index="1" disallow="tram rail_urban rail rail_electric pedestrian ship"/>
    </edge>
    <edge id="-4662541#2" from="cluster_cluster_cluster_cluster_2607185468_cluster_27194225_gneJ2_gneJ9_gneJ21_gneJ73_gneJ79_gneJ90" to="j002" priority="3" type="highway.residential" numLanes="2" speed="8.33" shape="936.64,1918.37 888.83,1922.50 881.33,1925.66">
        <lane index="0" allow="pedestrian" width="2.00"/>
        <lane index="1" disallow="tram rail_urban rail rail_electric pedestrian ship"/>
    </edge>
    <edge id="-480932499" from="3100813936" to="cluster_3100814033_3100831730_4738777392_4738777393" priority="1" type="highway.service" numLanes="1" speed="5.56" shape="742.54,2221.96 766.41,2222.46" allow="delivery bicycle pedestrian"/>
    <edge id="-533368700" from="3122562430" to="cluster_cluster_cluster_3122562232_3122562233_cluster_3689041238_3689041239_5174656858_5174656859_gneJ136_gneJ139" priority="1" type="highway.service" numLanes="1" speed="5.56" shape="747.80,2001.56 753.38,2000.41 759.95,2032.58" allow="delivery bicycle pedestrian"/>
    <edge id="-533368701" from="3122562529" to="cluster_cluster_cluster_3122562232_3122562233_cluster_3689041238_3689041239_5174656858_5174656859_gneJ136_gneJ139" priority="1" type="highway.service" numLanes="1" speed="5.56" shape="770.09,2005.14 760.62,2007.21 765.66,2031.21" allow="delivery bicycle pedestrian"/>
    <edge id="-533381127" from="3050661412" to="cluster_cluster_1078797621_cluster_28092165_3050661415_3392905426_3689041237_5174766995_gneJ128_gneJ131_gneJ134_gneJ137" priority="1" type="highway.service" numLanes="1" speed="5.56" shape="796.42,2010.33 799.48,2024.44" allow="delivery bicycle pedestrian"/>
    <edge id="-5785422" from="2579753000" to="cluster_1987363465_cluster_45321481_gneJ38" priority="3" type="highway.residential" numLanes="2" speed="8.33" shape="1089.88,1978.64 1079.99,1956.54">
        <lane index="0" allow="pedestrian" width="2.00"/>
        <lane index="1" disallow="tram rail_urban rail rail_electric pedestrian ship"/>
    </edge>
    <edge id="-5785606" from="658951458" to="cluster_45310085_gneJ124" priority="3" type="highway.residential" numLanes="2" speed="8.33" shape="1093.41,2208.56 984.86,2230.06">
        <lane index="0" allow="pedestrian" width="2.00"/>
        <lane index="1" disallow="tram rail_urban rail rail_electric pedestrian ship"/>
    </edge>
    <edge id="-80737020#0" from="cluster_cluster_cluster_3122562232_3122562233_cluster_3689041238_3689041239_5174656858_5174656859_gneJ136_gneJ139" to="4956635667" priority="3" type="highway.residential" numLanes="1" speed="13.89" shape="762.06,2041.75 725.19,2049.93 719.90,2051.10 667.80,2062.60" disallow="tram rail_urban rail rail_electric pedestrian ship"/>
    <edge id="-80737020#2" from="cluster_cluster_1078797621_cluster_28092165_3050661415_3392905426_3689041237_5174766995_gneJ128_gneJ131_gneJ134_gneJ137" to="cluster_cluster_cluster_3122562232_3122562233_cluster_3689041238_3689041239_5174656858_5174656859_gneJ136_gneJ139" priority="3" type="highway.residential" numLanes="1" speed="13.89" shape="801.35,2033.04 767.61,2040.51" disallow="tram rail_urban rail rail_electric pedestrian ship"/>
    <edge id="-86414054#0" from="cluster_gneJ114_gneJ117" to="cluster_cluster_45334608_gneJ115_gneJ126_gneJ127" priority="3" type="highway.residential" numLanes="2" speed="13.89" shape="1059.21,1992.81 1034.88,2079.72" spreadType="center">
        <lane index="0" allow="pedestrian" width="2.00"/>
        <lane index="1" disallow="tram rail_urban rail rail_electric pedestrian ship"/>
    </edge>
    <edge id="-86414054#1" from="cluster_cluster_1987363467_27194086_gneJ5_gneJ116" to="cluster_gneJ114_gneJ117" priority="3" type="highway.residential" numLanes="2" speed="13.89" shape="1058.70,1967.74 1059.40,1991.26" spreadType="center">
        <lane index="0" allow="pedestrian" width="2.00"/>
        <lane index="1" disallow="tram rail_urban rail rail_electric pedestrian ship"/>
    </edge>
    <edge id="-86414058" from="cluster_1987363465_cluster_45321481_gneJ38" to="cluster_cluster_27194082_gneJ39_gneJ110" priority="3" type="highway.residential" numLanes="2" speed="8.33" shape="1082.19,1954.18 1108.91,1941.64" spreadType="center">
        <lane index="0" allow="pedestrian" width="2.00"/>
        <lane index="1" disallow="tram rail_urban rail rail_electric pedestrian ship"/>
    </edge>
    <edge id="-86414061" from="cluster_cluster_45334608_gneJ115_gneJ126_gneJ127" to="cluster_45341878_gneJ121_gneJ123" priority="3" type="highway.residential" numLanes="2" speed="8.33" shape="1034.84,2079.86 1032.02,2088.91 1010.92,2158.28 1006.06,2167.35" spreadType="center">
        <lane index="0" allow="pedestrian" width="2.00"/>
        <lane index="1" disallow="tram rail_urban rail rail_electric pedestrian ship"/>
    </edge>
    <edge id="101220845" from="614343873" to="cluster_cluster_2203963782_cluster_371663701_6578727_gneJ118_gneJ141" priority="1" type="highway.cycleway" numLanes="1" speed="8.33" shape="861.20,2270.68 860.00,2184.84" width="1.00" allow="bicycle"/>
    <edge id="105469274#0" from="2640786734" to="871975368" priority="1" type="highway.footway" numLanes="1" speed="2.78" shape="893.34,2116.32 891.15,2092.03 884.37,2066.46 893.22,2046.43" spreadType="center" width="2.00" allow="pedestrian"/>
    <edge id="127977585" from="1955585" to="cluster_cluster_2203963782_cluster_371663701_6578727_gneJ118_gneJ141" priority="11" type="highway.secondary" numLanes="3" speed="13.89" shape="866.11,2285.47 867.35,2184.70" spreadType="center" disallow="tram rail_urban rail rail_electric pedestrian ship"/>
    <edge id="151542344#1" from="27154468" to="j002" priority="11" type="highway.secondary" numLanes="2" speed="13.89" shape="815.54,1724.57 846.89,1837.19 861.21,1886.27 871.08,1925.83" spreadType="center" disallow="tram rail_urban rail rail_electric pedestrian ship"/>
    <edge id="151542344#2" from="j002" to="j004" priority="11" type="highway.secondary" numLanes="2" speed="13.89" shape="871.08,1925.83 884.57,2003.64" spreadType="center" disallow="tram rail_urban rail rail_electric pedestrian ship"/>
    <edge id="151542345#1" from="j004" to="j003" priority="11" type="highway.secondary" numLanes="3" speed="13.89" shape="867.59,2012.67 862.76,1962.71 860.13,1931.27 858.31,1921.84" spreadType="center" disallow="tram rail_urban rail rail_electric pedestrian ship"/>
    <edge id="151542345#2" from="j003" to="1452374268" priority="11" type="highway.secondary" numLanes="3" speed="13.89" shape="858.31,1921.84 857.01,1915.09 851.92,1888.76 841.32,1851.34 833.88,1827.06 820.11,1781.10" spreadType="center" disallow="tram rail_urban rail rail_electric pedestrian ship"/>
    <edge id="155546685" from="cluster_2064177032_260827627_3392905427_3746970764" to="cluster_cluster_45334608_gneJ115_gneJ126_gneJ127" priority="3" type="highway.residential" numLanes="2" speed="8.33" shape="926.93,2070.52 972.55,2070.49 1001.64,2072.94 1029.87,2078.32">
        <lane index="0" allow="pedestrian" width="2.00"/>
        <lane index="1" disallow="tram rail_urban rail rail_electric pedestrian ship"/>
    </edge>
    <edge id="155546690" from="cluster_45338551_gneJ122" to="cluster_45341878_gneJ121_gneJ123" priority="3" type="highway.residential" numLanes="2" speed="8.33" shape="1151.23,2121.71 1010.83,2164.72 1003.22,2166.02" spreadType="center">
        <lane index="0" allow="pedestrian" width="2.00"/>
        <lane index="1" disallow="tram rail_urban rail rail_electric pedestrian ship"/>
    </edge>
    <edge id="155546691" from="cluster_45341878_gneJ121_gneJ123" to="260827624" priority="3" type="highway.residential" numLanes="2" speed="8.33" shape="1003.22,2164.72 995.25,2165.30 960.06,2174.70">
        <lane index="0" allow="pedestrian" width="2.00"/>
        <lane index="1" disallow="tram rail_urban rail rail_electric pedestrian ship"/>
    </edge>
    <edge id="155546692" from="cluster_45310085_gneJ124" to="cluster_45341878_gneJ121_gneJ123" priority="3" type="highway.residential" numLanes="2" speed="8.33" shape="984.86,2230.06 1001.58,2172.70 1001.85,2164.45" spreadType="center">
        <lane index="0" allow="pedestrian" width="2.00"/>
        <lane index="1" disallow="tram rail_urban rail rail_electric pedestrian ship"/>
    </edge>
    <edge id="155548874" from="j004" to="j001" priority="3" type="highway.residential" numLanes="3" speed="13.89" shape="885.86,2012.05 902.37,2009.59">
        <lane index="0" allow="pedestrian" width="2.00"/>
        <lane index="1" allow="bicycle" width="2.00"/>
        <lane index="2" disallow="tram rail_urban rail rail_electric pedestrian ship"/>
    </edge>
    <edge id="155548876" from="cluster_cluster_45334608_gneJ115_gneJ126_gneJ127" to="cluster_45334623_gneJ125" priority="3" type="highway.residential" numLanes="2" speed="8.33" shape="1029.87,2078.32 1054.22,2083.23 1080.14,2084.57 1099.49,2082.24 1131.92,2072.88" spreadType="center">
        <lane index="0" allow="pedestrian" width="2.00"/>
        <lane index="1" disallow="tram rail_urban rail rail_electric pedestrian ship"/>
    </edge>
    <edge id="157964859#0" from="1404411555" to="j004" priority="3" type="highway.residential" numLanes="1" speed="13.89" shape="832.29,2026.33 849.12,2023.60" disallow="tram rail_urban rail rail_electric pedestrian ship"/>
    <edge id="157964860#0" from="j005" to="j004" priority="11" type="highway.secondary" numLanes="3" speed="13.89" shape="865.05,2084.32 865.97,2033.13" spreadType="center" disallow="tram rail_urban rail rail_electric pedestrian ship"/>
    <edge id="158399739#0" from="cluster_cluster_27194092_gneJ1_gneJ4_gneJ7_gneJ107" to="cluster_cluster_cluster_cluster_312385387_gneJ0_gneJ3_gneJ25_gneJ80_gneJ91" priority="3" type="highway.residential" numLanes="2" speed="13.89" shape="1020.91,1892.47 974.38,1913.32" spreadType="center">
        <lane index="0" allow="pedestrian" width="2.00"/>
        <lane index="1" disallow="tram rail_urban rail rail_electric pedestrian ship"/>
    </edge>
    <edge id="158399739#1" from="cluster_cluster_cluster_cluster_312385387_gneJ0_gneJ3_gneJ25_gneJ80_gneJ91" to="cluster_cluster_cluster_cluster_2607185468_cluster_27194225_gneJ2_gneJ9_gneJ21_gneJ73_gneJ79_gneJ90" priority="3" type="highway.residential" numLanes="2" speed="13.89" shape="974.12,1913.41 946.58,1917.62" spreadType="center">
        <lane index="0" allow="pedestrian" width="2.00"/>
        <lane index="1" disallow="tram rail_urban rail rail_electric pedestrian ship"/>
    </edge>
    <edge id="158399779#0" from="cluster_cluster_1987363467_27194086_gneJ5_gneJ116" to="cluster_cluster_27194092_gneJ1_gneJ4_gneJ7_gneJ107" priority="3" type="highway.residential" numLanes="2" speed="8.33" shape="1053.50,1967.89 1020.91,1892.47" spreadType="center">
        <lane index="0" allow="pedestrian" width="2.00"/>
        <lane index="1" disallow="tram rail_urban rail rail_electric pedestrian ship"/>
    </edge>
    <edge id="158399779#1" from="cluster_cluster_27194092_gneJ1_gneJ4_gneJ7_gneJ107" to="cluster_cluster_27154463_gneJ6_gneJ82" priority="3" type="highway.residential" numLanes="2" speed="8.33" shape="1020.91,1892.47 991.00,1822.44 971.04,1793.27" spreadType="center">
        <lane index="0" allow="pedestrian" width="2.00"/>
        <lane index="1" disallow="tram rail_urban rail rail_electric pedestrian ship"/>
    </edge>