<?xml version="1.0" encoding="UTF-8"?>
<!-- generated on 2023-05-19 15:51:49.760510 by $Id$ v1_9_2+0044-41c239f2c4
  options: <doubleminus>configuration-file munich_trip_cfg.xml
-->
<routes xmlns:xsi="http://www.w3.org/2001/XMLSchema-instance" xsi:noNamespaceSchemaLocation="http://sumo.dlr.de/xsd/routes_file.xsd">
    <person id="0" depart="0.00" type="pedType1">
        <walk from="-5219118#2" to="24039836#2"/>
    </person>
    <person id="1" depart="0.10" type="pedType1">
        <walk from="-143011142#2" to="-4673762#2"/>
    </person>
    <person id="2" depart="0.20" type="pedType1">
        <walk from="449741714#1" to="-11798844#4"/>
    </person>
    <person id="3" depart="0.30" type="pedType1">
        <walk from="154575776#7" to="258777081"/>
    </person>
    <person id="4" depart="0.40" type="pedType1">
        <walk from="328027155" to="303809478#1"/>
    </person>
    <person id="5" depart="0.50" type="pedType1">
        <walk from="4651574#7" to="416447060#1"/>
    </person>
    <person id="6" depart="0.60" type="pedType1">
        <walk from="-58807376#0" to="-151263118#2"/>
    </person>
    <person id="7" depart="0.70" type="pedType1">
        <walk from="157093963#0" to="-5219137#2"/>
    </person>
    <person id="8" depart="0.80" type="pedType1">
        <walk from="505527590#4" to="-89699186#5"/>
    </person>
    <person id="9" depart="0.90" type="pedType1">
        <walk from="39380980#5" to="253032413#1"/>
    </person>
    <person id="10" depart="1.00" type="pedType1">
        <walk from="121262308#0" to="-159542738#1"/>
    </person>
    <person id="11" depart="1.10" type="pedType1">
        <walk from="-17967394#2" to="393414630#7"/>
    </person>
    <person id="12" depart="1.20" type="pedType1">
        <walk from="219556894#6" to="258747555#0"/>
    </person>
    <person id="13" depart="1.30" type="pedType1">
        <walk from="-89840548#5" to="505114036"/>
    </person>
    <person id="14" depart="1.40" type="pedType1">
        <walk from="17962377#2" to="244524121"/>
    </person>
    <person id="15" depart="1.50" type="pedType1">
        <walk from="-58807374#3" to="56121817"/>
    </person>
    <person id="16" depart="1.60" type="pedType1">
        <walk from="-7390561#1" to="346040138"/>
    </person>
    <person id="17" depart="1.70" type="pedType1">
        <walk from="-505527590#6" to="-33487034#9"/>
    </person>
    <person id="18" depart="1.80" type="pedType1">
        <walk from="-83028196#7" to="682992440"/>
    </person>
    <person id="19" depart="1.90" type="pedType1">
        <walk from="258747562#0" to="-157102850#3"/>
    </person>
    <person id="20" depart="2.00" type="pedType1">
        <walk from="-89840548#8" to="423191015#1"/>
    </person>
    <person id="21" depart="2.10" type="pedType1">
        <walk from="870301217#1" to="27807194#1"/>
    </person>
    <person id="22" depart="2.20" type="pedType1">
        <walk from="99661938" to="99661895"/>
    </person>
    <person id="23" depart="2.30" type="pedType1">
        <walk from="51476080#3" to="51317624#2"/>
    </person>
    <person id="24" depart="2.40" type="pedType1">
        <walk from="457324386#1" to="278721408"/>
    </person>
    <person id="25" depart="2.50" type="pedType1">
        <walk from="-83028196#2" to="-27807186#0"/>
    </person>
    <person id="26" depart="2.60" type="pedType1">
        <walk from="421310216#1" to="51510847#1"/>
    </person>
    <person id="27" depart="2.70" type="pedType1">
        <walk from="157964862#1" to="307419997#3"/>
    </person>
    <person id="28" depart="2.80" type="pedType1">
        <walk from="4498577#1" to="51476081#2"/>
    </person>
    <person id="29" depart="2.90" type="pedType1">
        <walk from="12693859#3" to="72244443"/>
    </person>
    <person id="30" depart="3.00" type="pedType1">
        <walk from="4262221#2" to="-281932879"/>
    </person>
    <person id="31" depart="3.10" type="pedType1">
        <walk from="205612298#10" to="119748210"/>
    </person>
    <person id="32" depart="3.20" type="pedType1">
        <walk from="125009454#0" to="488348595"/>
    </person>
    <person id="33" depart="3.30" type="pedType1">
        <walk from="86414071" to="10436938#2"/>
    </person>
    <person id="34" depart="3.40" type="pedType1">
        <walk from="319016958#1" to="157093963#3"/>
    </person>
    <person id="35" depart="3.50" type="pedType1">
        <walk from="851167804#2" to="-89840550#3"/>
    </person>
    <person id="36" depart="3.60" type="pedType1">
        <walk from="155603789#6" to="275157010#1"/>
    </person>
    <person id="37" depart="3.70" type="pedType1">
        <walk from="252912473" to="374424847"/>
    </person>
    <person id="38" depart="3.80" type="pedType1">
        <walk from="768442404#1" to="352272295#4"/>
    </person>
    <person id="39" depart="3.90" type="pedType1">
        <walk from="55456901" to="306737841#0"/>
    </person>
    <person id="40" depart="4.00" type="pedType1">
        <walk from="-238945152" to="244303539"/>
    </person>
    <person id="41" depart="4.10" type="pedType1">
        <walk from="349825375" to="-53533144#0"/>
    </person>
    <person id="42" depart="4.20" type="pedType1">
        <walk from="-802819970" to="219556894#4"/>
    </person>
    <person id="43" depart="4.30" type="pedType1">
        <walk from="-28019886#3" to="165492307"/>
    </person>
    <person id="44" depart="4.40" type="pedType1">
        <walk from="-4262228#1" to="851113020#3"/>
    </person>
    <person id="45" depart="4.50" type="pedType1">
        <walk from="244524128" to="-157093971#2"/>
    </person>
    <person id="46" depart="4.60" type="pedType1">
        <walk from="-8163015#0" to="316499742"/>
    </person>
    <person id="47" depart="4.70" type="pedType1">
        <walk from="254470577" to="-355553864"/>
    </person>
    <person id="48" depart="4.80" type="pedType1">
        <walk from="-631584332#2" to="35869604#3"/>
    </person>
    <person id="49" depart="4.90" type="pedType1">
        <walk from="155040996#0" to="-117849719#2"/>
    </person>
    <person id="50" depart="5.00" type="pedType1">
        <walk from="136061578" to="392069509"/>
    </person>
    <person id="51" depart="5.10" type="pedType1">
        <walk from="258139176" to="300559241"/>
    </person>
    <person id="52" depart="5.20" type="pedType1">
        <walk from="157188170#1" to="-39380980#0"/>
    </person>
    <person id="53" depart="5.30" type="pedType1">
        <walk from="393428884" to="154782357"/>
    </person>
    <person id="54" depart="5.40" type="pedType1">
        <walk from="331867113" to="392072302#0"/>
    </person>
    <person id="55" depart="5.50" type="pedType1">
        <walk from="35834770#1" to="308976555"/>
    </person>
    <person id="56" depart="5.60" type="pedType1">
        <walk from="-274154212#0" to="413591147"/>
    </person>
    <person id="57" depart="5.70" type="pedType1">
        <walk from="475480605" to="4520029#1"/>
    </person>
    <person id="58" depart="5.80" type="pedType1">
        <walk from="37809631#0" to="86414064"/>
    </person>
    <person id="59" depart="5.90" type="pedType1">
        <walk from="-93192044#0" to="449741696#0"/>
    </person>
    <person id="60" depart="6.00" type="pedType1">
        <walk from="252912471#2" to="22690583#3"/>
    </person>
    <person id="61" depart="6.10" type="pedType1">
        <walk from="154782356#0" to="-144927050"/>
    </person>
    <person id="62" depart="6.20" type="pedType1">
        <walk from="-240827890" to="374541986#0"/>
    </person>
    <person id="63" depart="6.30" type="pedType1">
        <walk from="278711173" to="219432271#0"/>
    </person>
    <person id="64" depart="6.40" type="pedType1">
        <walk from="-845930953#1" to="-307219419#0"/>
    </person>
    <person id="65" depart="6.50" type="pedType1">
        <walk from="250329224#1" to="39380980#1"/>
    </person>
    <person id="66" depart="6.60" type="pedType1">
        <walk from="89840545#6" to="248003740#1"/>
    </person>
    <person id="67" depart="6.70" type="pedType1">
        <walk from="108127809#0" to="-273936882#4"/>
    </person>
    <person id="68" depart="6.80" type="pedType1">
        <walk from="49798616#2" to="23142809#1"/>
    </person>
    <person id="69" depart="6.90" type="pedType1">
        <walk from="505114045#1" to="274151220"/>
    </person>
    <person id="70" depart="7.00" type="pedType1">
        <walk from="-157188170#5" to="-376107908#1"/>
    </person>
    <person id="71" depart="7.10" type="pedType1">
        <walk from="4005735#2" to="300962782"/>
    </person>
    <person id="72" depart="7.20" type="pedType1">
        <walk from="246862111#1" to="19682893#2"/>
    </person>
    <person id="73" depart="7.30" type="pedType1">
        <walk from="307420002#0" to="305294149#1"/>
    </person>
    <person id="74" depart="7.40" type="pedType1">
        <walk from="-4827269#0" to="-49798616#1"/>
    </person>
    <person id="75" depart="7.50" type="pedType1">
        <walk from="292623507#1" to="11408587#10"/>
    </person>
    <person id="76" depart="7.60" type="pedType1">
        <walk from="353017403#6" to="686147882"/>
    </person>
    <person id="77" depart="7.70" type="pedType1">
        <walk from="4262228#1" to="308715440#1"/>
    </person>
    <person id="78" depart="7.80" type="pedType1">
        <walk from="113849535#19" to="-313577318#3"/>
    </person>
    <person id="79" depart="7.90" type="pedType1">
        <walk from="777646482#1" to="23885024#6"/>
    </person>
    <person id="80" depart="8.00" type="pedType1">
        <walk from="459027221#0" to="27496911#0"/>
    </person>
    <person id="81" depart="8.10" type="pedType1">
        <walk from="82489107#1" to="99663070#5"/>
    </person>
    <person id="82" depart="8.20" type="pedType1">
        <walk from="-155055228#1" to="392104939#2"/>
    </person>
    <person id="83" depart="8.30" type="pedType1">
        <walk from="134929396#15" to="127478189#0"/>
    </person>
    <person id="84" depart="8.40" type="pedType1">
        <walk from="346040148#1" to="480932506"/>
    </person>
    <person id="85" depart="8.50" type="pedType1">
        <walk from="126749625#1" to="35869604#0"/>
    </person>
    <person id="86" depart="8.60" type="pedType1">
        <walk from="19683797#0" to="122270641#1"/>
    </person>
    <person id="87" depart="8.70" type="pedType1">
        <walk from="-30816923#1" to="88714905#1"/>
    </person>
    <person id="88" depart="8.80" type="pedType1">
        <walk from="206863693#1" to="-301541142#3"/>
    </person>
    <person id="89" depart="8.90" type="pedType1">
        <walk from="258777070" to="155548876"/>
    </person>
    <person id="90" depart="9.00" type="pedType1">
        <walk from="252956226" to="133539765#0"/>
    </person>
    <person id="91" depart="9.10" type="pedType1">
        <walk from="258777080#0" to="255440594#1"/>
    </person>
    <person id="92" depart="9.20" type="pedType1">
        <walk from="19683798#4" to="123244285"/>
    </person>
    <person id="93" depart="9.30" type="pedType1">
        <walk from="416447051#2" to="-157028289#3"/>
    </person>
    <person id="94" depart="9.40" type="pedType1">
        <walk from="218848675#2" to="873230258"/>
    </person>
    <person id="95" depart="9.50" type="pedType1">
        <walk from="329455711#2" to="475919643"/>
    </person>
    <person id="96" depart="9.60" type="pedType1">
        <walk from="476046530" to="482117464"/>
    </person>
    <person id="97" depart="9.70" type="pedType1">
        <walk from="37281005#2" to="39322226#3"/>
    </person>
    <person id="98" depart="9.80" type="pedType1">
        <walk from="38740325" to="178117118#0"/>
    </person>
    <person id="99" depart="9.90" type="pedType1">
        <walk from="-761199743#0" to="60363514"/>
    </person>
    <person id="100" depart="10.00" type="pedType1">
        <walk from="-851153414#2" to="-851166562#1"/>
    </person>
    <person id="101" depart="10.10" type="pedType1">
        <walk from="540351572" to="352280457#1"/>
    </person>
    <person id="102" depart="10.20" type="pedType1">
        <walk from="316499775#1" to="165280265#9"/>
    </person>
    <person id="103" depart="10.30" type="pedType1">
        <walk from="-8310145#1" to="4673756"/>
    </person>
    <person id="104" depart="10.40" type="pedType1">
        <walk from="273936882#3" to="274367493#1"/>
    </person>
    <person id="105" depart="10.50" type="pedType1">
        <walk from="-157093962#4" to="301541142#0"/>
    </person>
    <person id="106" depart="10.60" type="pedType1">
        <walk from="352280457#11" to="374544612"/>
    </person>
    <person id="107" depart="10.70" type="pedType1">
        <walk from="338046825" to="4645396#3"/>
    </person>
    <person id="108" depart="10.80" type="pedType1">
        <walk from="309990221#1" to="557265455#1"/>
    </person>
    <person id="109" depart="10.90" type="pedType1">
        <walk from="32735995#2" to="121899539#3"/>
    </person>
    <person id="110" depart="11.00" type="pedType1">
        <walk from="455329237" to="226068160#0"/>
    </person>
    <person id="111" depart="11.10" type="pedType1">
        <walk from="19683734" to="349825375"/>
    </person>
    <person id="112" depart="11.20" type="pedType1">
        <walk from="-53377332#2" to="-165280290#7"/>
    </person>
    <person id="113" depart="11.30" type="pedType1">
        <walk from="455315641" to="58807376#6"/>
    </person>
    <person id="114" depart="11.40" type="pedType1">
        <walk from="119747964#0" to="232059478#0"/>
    </person>
    <person id="115" depart="11.50" type="pedType1">
        <walk from="80239247#2" to="160565852#1"/>
    </person>
    <person id="116" depart="11.60" type="pedType1">
        <walk from="82790717#6" to="-151996487#0"/>
    </person>
    <person id="117" depart="11.70" type="pedType1">
        <walk from="-273924582#1" to="352895425#3"/>
    </person>
    <person id="118" depart="11.80" type="pedType1">
        <walk from="142808367#1" to="157093962#1"/>
    </person>
    <person id="119" depart="11.90" type="pedType1">
        <walk from="29424898#1" to="-134034995"/>
    </person>
    <person id="120" depart="12.00" type="pedType1">
        <walk from="4262211#4" to="-80239245#0"/>
    </person>
    <person id="121" depart="12.10" type="pedType1">
        <walk from="-323966451#2" to="271889006#2"/>
    </person>
    <person id="122" depart="12.20" type="pedType1">
        <walk from="-364204338" to="-332176205#3"/>
    </person>
    <person id="123" depart="12.30" type="pedType1">
        <walk from="-83347518" to="-42446215"/>
    </person>
    <person id="124" depart="12.40" type="pedType1">
        <walk from="338649281#0" to="-142808367#1"/>
    </person>
    <person id="125" depart="12.50" type="pedType1">
        <walk from="-42446213#0" to="-157188165#2"/>
    </person>
    <person id="126" depart="12.60" type="pedType1">
        <walk from="224086893#1" to="157102852#8"/>
    </person>
    <person id="127" depart="12.70" type="pedType1">
        <walk from="363573822" to="47634455#1"/>
    </person>
    <person id="128" depart="12.80" type="pedType1">
        <walk from="159542742#5" to="-26129918"/>
    </person>
    <person id="129" depart="12.90" type="pedType1">
        <walk from="457044581#3" to="-24998362#7"/>
    </person>
    <person id="130" depart="13.00" type="pedType1">
        <walk from="450135131#2" to="258783995#0"/>
    </person>
    <person id="131" depart="13.10" type="pedType1">
        <walk from="374950645" to="870301211"/>
    </person>
    <person id="132" depart="13.20" type="pedType1">
        <walk from="-92929952" to="-444996324#1"/>
    </person>
    <person id="133" depart="13.30" type="pedType1">
        <walk from="416447063#0" to="273830704#3"/>
    </person>
    <person id="134" depart="13.40" type="pedType1">
        <walk from="339142525" to="22927280#0"/>
    </person>
    <person id="135" depart="13.50" type="pedType1">
        <walk from="172457732#3" to="108127811"/>
    </person>
    <person id="136" depart="13.60" type="pedType1">
        <walk from="-851167804#3" to="124871891#0"/>
    </person>
    <person id="137" depart="13.70" type="pedType1">
        <walk from="457244990" to="449539733"/>
    </person>
    <person id="138" depart="13.80" type="pedType1">
        <walk from="377796593#1" to="451790951#6"/>
    </person>
    <person id="139" depart="13.90" type="pedType1">
        <walk from="308384344#0" to="488348593"/>
    </person>
    <person id="140" depart="14.00" type="pedType1">
        <walk from="-178117118#0" to="184066281"/>
    </person>
    <person id="141" depart="14.10" type="pedType1">
        <walk from="-158901369#5" to="457044581#2"/>
    </person>
    <person id="142" depart="14.20" type="pedType1">
        <walk from="241674906#0" to="20841428#1"/>
    </person>
    <person id="143" depart="14.30" type="pedType1">
        <walk from="5348870" to="19682357#3"/>
    </person>
    <person id="144" depart="14.40" type="pedType1">
        <walk from="123244280" to="219556897#0"/>
    </person>
    <person id="145" depart="14.50" type="pedType1">
        <walk from="157028976#1" to="29279743#8"/>
    </person>
    <person id="146" depart="14.60" type="pedType1">
        <walk from="32707928#3" to="165280253#4"/>
    </person>
    <person id="147" depart="14.70" type="pedType1">
        <walk from="-559194509#3" to="-352889578#2"/>
    </person>
    <person id="148" depart="14.80" type="pedType1">
        <walk from="457324397" to="51508352#6"/>
    </person>
    <person id="149" depart="14.90" type="pedType1">
        <walk from="457044577" to="410655508#1"/>
    </person>
    <person id="150" depart="15.00" type="pedType1">
        <walk from="17961626" to="158399798"/>
    </person>
    <person id="151" depart="15.10" type="pedType1">
        <walk from="-5344608#1" to="19683045"/>
    </person>
    <person id="152" depart="15.20" type="pedType1">
        <walk from="13493715#1" to="-143558083#1"/>
    </person>
    <person id="153" depart="15.30" type="pedType1">
        <walk from="-717957943" to="97594013#1"/>
    </person>
    <person id="154" depart="15.40" type="pedType1">
        <walk from="-352889578#2" to="113604438"/>
    </person>
    <person id="155" depart="15.50" type="pedType1">
        <walk from="456746079" to="35869623#0"/>
    </person>
    <person id="156" depart="15.60" type="pedType1">
        <walk from="-23081818#1" to="-86414052#0"/>
    </person>
    <person id="157" depart="15.70" type="pedType1">
        <walk from="161652311#11" to="436513870"/>
    </person>
    <person id="158" depart="15.80" type="pedType1">
        <walk from="559194510#2" to="29418700#2"/>
    </person>
    <person id="159" depart="15.90" type="pedType1">
        <walk from="248225256#0" to="241935342"/>
    </person>
    <person id="160" depart="16.00" type="pedType1">
        <walk from="315420079#1" to="92941659#1"/>
    </person>
    <person id="161" depart="16.10" type="pedType1">
        <walk from="31094450#1" to="450135130"/>
    </person>
    <person id="162" depart="16.20" type="pedType1">
        <walk from="236100860#0" to="690887508"/>
    </person>
    <person id="163" depart="16.30" type="pedType1">
        <walk from="257633891#0" to="123244274#2"/>
    </person>
    <person id="164" depart="16.40" type="pedType1">
        <walk from="-23201317#0" to="338649280#1"/>
    </person>
    <person id="165" depart="16.50" type="pedType1">
        <walk from="-206863693#11" to="316499740"/>
    </person>
    <person id="166" depart="16.60" type="pedType1">
        <walk from="144919881#3" to="444989238#0"/>
    </person>
    <person id="167" depart="16.70" type="pedType1">
        <walk from="-172709304" to="418922270"/>
    </person>
    <person id="168" depart="16.80" type="pedType1">
        <walk from="-83028196#5" to="-298329924#0"/>
    </person>
    <person id="169" depart="16.90" type="pedType1">
        <walk from="-88714905#2" to="-872226473"/>
    </person>
    <person id="170" depart="17.00" type="pedType1">
        <walk from="112036217#0" to="635016130#0"/>
    </person>
    <person id="171" depart="17.10" type="pedType1">
        <walk from="47634455#1" to="19683397#4"/>
    </person>
    <person id="172" depart="17.20" type="pedType1">
        <walk from="-242860956" to="352894103#12"/>
    </person>
    <person id="173" depart="17.30" type="pedType1">
        <walk from="134929396#1" to="-16786175#1"/>
    </person>
    <person id="174" depart="17.40" type="pedType1">
        <walk from="-35599699#1" to="432941623#1"/>
    </person>
    <person id="175" depart="17.50" type="pedType1">
        <walk from="258777076" to="305889811#5"/>
    </person>
    <person id="176" depart="17.60" type="pedType1">
        <walk from="88356753#0" to="319016964#1"/>
    </person>
    <person id="177" depart="17.70" type="pedType1">
        <walk from="123434428#0" to="370878835#1"/>
    </person>
    <person id="178" depart="17.80" type="pedType1">
        <walk from="134034977#1" to="776733501#0"/>
    </person>
    <person id="179" depart="17.90" type="pedType1">
        <walk from="319016958#1" to="275157011#0"/>
    </person>
    <person id="180" depart="18.00" type="pedType1">
        <walk from="159542749#2" to="316499775#2"/>
    </person>
    <person id="181" depart="18.10" type="pedType1">
        <walk from="236114774" to="308976554"/>
    </person>
    <person id="182" depart="18.20" type="pedType1">
        <walk from="22690577#3" to="449532017"/>
    </person>
    <person id="183" depart="18.30" type="pedType1">
        <walk from="122159103" to="37280850#0"/>
    </person>
    <person id="184" depart="18.40" type="pedType1">
        <walk from="-271889006#0" to="113849539#2"/>
    </person>
    <person id="185" depart="18.50" type="pedType1">
        <walk from="27630557#1" to="122159109#0"/>
    </person>
    <person id="186" depart="18.60" type="pedType1">
        <walk from="80239245#2" to="24039836#3"/>
    </person>
    <person id="187" depart="18.70" type="pedType1">
        <walk from="332176205#6" to="218848676#5"/>
    </person>
    <person id="188" depart="18.80" type="pedType1">
        <walk from="-47094509" to="24246453"/>
    </person>
    <person id="189" depart="18.90" type="pedType1">
        <walk from="300962780#1" to="244303539"/>
    </person>
    <person id="190" depart="19.00" type="pedType1">
        <walk from="124701368#1" to="306097064#1"/>
    </person>
    <person id="191" depart="19.10" type="pedType1">
        <walk from="127677140#1" to="456090764"/>
    </person>
    <person id="192" depart="19.20" type="pedType1">
        <walk from="310366314#1" to="307412141#1"/>
    </person>
    <person id="193" depart="19.30" type="pedType1">
        <walk from="4649467#3" to="-371895717"/>
    </person>
    <person id="194" depart="19.40" type="pedType1">
        <walk from="116514209#1" to="113849535#4"/>
    </person>
    <person id="195" depart="19.50" type="pedType1">
        <walk from="113849539#5" to="113849533#6"/>
    </person>
    <person id="196" depart="19.60" type="pedType1">
        <walk from="371746586#22" to="134034990#1"/>
    </person>
    <person id="197" depart="19.70" type="pedType1">
        <walk from="258747562#0" to="710056330#3"/>
    </person>
    <person id="198" depart="19.80" type="pedType1">
        <walk from="5786954#1" to="-244544043"/>
    </person>
    <person id="199" depart="19.90" type="pedType1">
        <walk from="274151220" to="250326440"/>
    </person>
    <person id="200" depart="20.00" type="pedType1">
        <walk from="51476082#4" to="-4262225#2"/>
    </person>
    <person id="201" depart="20.10" type="pedType1">
        <walk from="701580126" to="506111186"/>
    </person>
    <person id="202" depart="20.20" type="pedType1">
        <walk from="749677449#0" to="475862202#1"/>
    </person>
    <person id="203" depart="20.30" type="pedType1">
        <walk from="217618262#1" to="-4645392#0"/>
    </person>
    <person id="204" depart="20.40" type="pedType1">
        <walk from="-24246633#1" to="346040141"/>
    </person>
    <person id="205" depart="20.50" type="pedType1">
        <walk from="306396735#2" to="-5219135"/>
    </person>
    <person id="206" depart="20.60" type="pedType1">
        <walk from="-226616365#0" to="271888999#2"/>
    </person>
    <person id="207" depart="20.70" type="pedType1">
        <walk from="244282621#2" to="19751454#2"/>
    </person>
    <person id="208" depart="20.80" type="pedType1">
        <walk from="50232915#3" to="5786742#4"/>
    </person>
    <person id="209" depart="20.90" type="pedType1">
        <walk from="153191823#1" to="352894103#5"/>
    </person>
    <person id="210" depart="21.00" type="pedType1">
        <walk from="331976393#1" to="134929396#13"/>
    </person>
    <person id="211" depart="21.10" type="pedType1">
        <walk from="-4427576#0" to="252381355"/>
    </person>
    <person id="212" depart="21.20" type="pedType1">
        <walk from="349842173" to="257633876"/>
    </person>
    <person id="213" depart="21.30" type="pedType1">
        <walk from="40317928#0" to="51508352#7"/>
    </person>
    <person id="214" depart="21.40" type="pedType1">
        <walk from="-158399793#2" to="23960591#0"/>
    </person>
    <person id="215" depart="21.50" type="pedType1">
        <walk from="113849535#7" to="450396595"/>
    </person>
    <person id="216" depart="21.60" type="pedType1">
        <walk from="308731063" to="16786171#5"/>
    </person>
    <person id="217" depart="21.70" type="pedType1">
        <walk from="776733526" to="346311433"/>
    </person>
    <person id="218" depart="21.80" type="pedType1">
        <walk from="42446213#1" to="123106279#1"/>
    </person>
    <person id="219" depart="21.90" type="pedType1">
        <walk from="154470138#2" to="392072302#2"/>
    </person>
    <person id="220" depart="22.00" type="pedType1">
        <walk from="449539728#1" to="62036883#4"/>
    </person>
    <person id="221" depart="22.10" type="pedType1">
        <walk from="377612373#0" to="-456090781"/>
    </person>
    <person id="222" depart="22.20" type="pedType1">
        <walk from="-93072396#1" to="349858766#0"/>
    </person>
    <person id="223" depart="22.30" type="pedType1">
        <walk from="-4520029#1" to="39378780#1"/>
    </person>
    <person id="224" depart="22.40" type="pedType1">
        <walk from="851166561#5" to="-300962787"/>
    </person>
    <person id="225" depart="22.50" type="pedType1">
        <walk from="155040999" to="250320424"/>
    </person>
    <person id="226" depart="22.60" type="pedType1">
        <walk from="24407221#1" to="236038532#1"/>
    </person>
    <person id="227" depart="22.70" type="pedType1">
        <walk from="218848675#2" to="4649336#3"/>
    </person>
    <person id="228" depart="22.80" type="pedType1">
        <walk from="154782363#3" to="457244990"/>
    </person>
    <person id="229" depart="22.90" type="pedType1">
        <walk from="255424619" to="319016959"/>
    </person>
    <person id="230" depart="23.00" type="pedType1">
        <walk from="-631584332#4" to="367241955#2"/>
    </person>
    <person id="231" depart="23.10" type="pedType1">
        <walk from="-124559504#0" to="450222408#1"/>
    </person>
    <person id="232" depart="23.20" type="pedType1">
        <walk from="351426186" to="449539733"/>
    </person>
    <person id="233" depart="23.30" type="pedType1">
        <walk from="59531578#1" to="-280334703"/>
    </person>
    <person id="234" depart="23.40" type="pedType1">
        <walk from="154782359#1" to="258777093"/>
    </person>
    <person id="235" depart="23.50" type="pedType1">
        <walk from="272294732#3" to="480932513"/>
    </person>
    <person id="236" depart="23.60" type="pedType1">
        <walk from="280335750#2" to="392040342#3"/>
    </person>
    <person id="237" depart="23.70" type="pedType1">
        <walk from="-35834771#1" to="93753178"/>
    </person>
    <person id="238" depart="23.80" type="pedType1">
        <walk from="377287452#1" to="23885052#1"/>
    </person>
    <person id="239" depart="23.90" type="pedType1">
        <walk from="23142604#3" to="141226239#1"/>
    </person>
    <person id="240" depart="24.00" type="pedType1">
        <walk from="776733501#3" to="173245155#0"/>
    </person>
    <person id="241" depart="24.10" type="pedType1">
        <walk from="-241935359" to="307308746"/>
    </person>
    <person id="242" depart="24.20" type="pedType1">
        <walk from="4427496" to="371746586#10"/>
    </person>
    <person id="243" depart="24.30" type="pedType1">
        <walk from="121899534#0" to="143558110#1"/>
    </person>
    <person id="244" depart="24.40" type="pedType1">
        <walk from="-24998362#3" to="297192147#0"/>
    </person>
    <person id="245" depart="24.50" type="pedType1">
        <walk from="123959573#5" to="155603789#6"/>
    </person>
    <person id="246" depart="24.60" type="pedType1">
        <walk from="273936882#3" to="-4056082#6"/>
    </person>
    <person id="247" depart="24.70" type="pedType1">
        <walk from="-165280290#7" to="17958696#2"/>
    </person>
    <person id="248" depart="24.80" type="pedType1">
        <walk from="161766613" to="22733573#1"/>
    </person>
    <person id="249" depart="24.90" type="pedType1">
        <walk from="123244269" to="80737021#4"/>
    </person>
    <person id="250" depart="25.00" type="pedType1">
        <walk from="86414059#0" to="870301220#1"/>
    </person>
    <person id="251" depart="25.10" type="pedType1">
        <walk from="-786161274" to="153191827"/>
    </person>
    <person id="252" depart="25.20" type="pedType1">
        <walk from="11408587#2" to="35869597#1"/>
    </person>
    <person id="253" depart="25.30" type="pedType1">
        <walk from="312550030#0" to="-776733518"/>
    </person>