<?xml version="1.0" encoding="UTF-8"?>

<!-- generated on 2023-05-19 15:51:53 by Eclipse SUMO duarouter Version v1_9_2+0043-66864b7fc8
<configuration xmlns:xsi="http://www.w3.org/2001/XMLSchema-instance" xsi:noNamespaceSchemaLocation="http://sumo.dlr.de/xsd/duarouterConfiguration.xsd">

    <input>
        <net-file value="munich.net.xml"/>
        <additional-files value="../trip_custom.xml"/>
        <route-files value="munich.trips.xml"/>
    </input>

    <output>
        <output-file value="munich.rou.xml"/>
        <alternatives-output value="munich.rou.alt.xml"/>
    </output>

    <processing>
        <remove-loops value="true"/>
    </processing>

    <time>
        <begin value="0"/>
        <end value="30"/>
    </time>

    <report>
        <verbose value="true"/>
        <ignore-errors value="true"/>
        <no-step-log value="true"/>
    </report>

</configuration>
-->

<routes xmlns:xsi="http://www.w3.org/2001/XMLSchema-instance" xsi:noNamespaceSchemaLocation="http://sumo.dlr.de/xsd/routes_file.xsd">
    <vType id="pedType1" maxSpeed="1.40" speedFactor="normc(1.00,0.19,0.14,1.43)"/>
    <person id="0" type="pedType1" depart="0.00">
        <walk edges="-5219118#2 -38626612#5 -38626612#6 38626612#7 -38626612#8 -38626612#11 -157102852#1 -157102852#6 -157102852#7 -157102852#8 -157093962#12 -157093962#13 -157093962#14 -157093962#17 -157093962#18 -157188172#0 157188172#1 -157188172#3 157188172#4 33487026#3 -33487026#1 371746586#0 371746586#1 371746586#2 371746586#3 533368697#1 265278402#4 258747528#6 258747528#5 258747528#4 258747528#3 258747528#2 258747528#1 258747528#0 374541989#0 374541989#1 374541989#2 374541989#3 24039836#2"/>
    </person>
    <person id="1" type="pedType1" depart="0.10">
        <walk edges="-143011142#2 143011142#1 371866615#3 -29424898#0 95735556#0 87602698#1 87602698#0 157032565 4673715#1 4673715#0 142786391#2 142786391#1 845930951#3 37666060#1 142808368 142808367#2 -4698761#1 4519926#4 -4673762#2"/>
    </person>
    <person id="2" type="pedType1" depart="0.20">
        <walk edges="449741714#1 449741691 449741693 449741708#0 -449741707 -154782359#2 23738101 -33487034#11 33487034#10 -33487034#9 -110962616 13492207 13491180 13855569#2 37809624#0 37809624#1 37809624#2 -235912727#2 -235912727#1 -235912727#0 -10436938#3 -10436938#2 -10436938#1 10436938#0 -10436937 -332184121#5 332184121#2 4417016#1 142457683#0 142457683#1 142457683#2 142457683#3 142457683#4 142457682#1 431528626#0 431528627#0 431528627#2 35869623#1 35869623#0 35869622 35869620#0 35869620#1 873230278#0 12693859#2 12693859#3 -11798844#4"/>
    </person>
    <person id="3" type="pedType1" depart="0.30">
        <walk edges="154575776#7 -154575776#7 -851166562#0 -851166562#1 410655508#1 410655508#0 151754277#2 33126943#3 -83028195#6 -310729848#0 80239245#2 -80239245#1 -80239245#0 80239244#1 -80239244#0 -323871723 214785685#13 214785685#12 214785685#11 258777080#1 100024658 258777081"/>
    </person>
    <person id="4" type="pedType1" depart="0.40">
        <walk edges="328027155 218877946#1 160026050#0 -30616063#1 -24998222#0 -24998222#1 -24998222#2 -161766362#2 -161766362#5 161766362#8 81270237#4 391390200#1 391390200#0 81270237#1 -39322226#2 39322226#1 851177627#0 292630184#2 -4520029#1 -4520029#2 -4520029#4 -4520029#5 -4520029#7 423191019#0 423191015#1 -423191014 303809478#1"/>
    </person>
    <person id="5" type="pedType1" depart="0.50">
        <walk edges="4651574#7 -4651574#7 851153414#6 5346622#0 -181922320#0 -181922320#1 -851133450 -190356098#0 -190356098#1 4056082#0 -4056082#1 4056082#2 86924645 112292595#3 112292595#0 86924641 450252895#0 450252895#1 450252895#2 -425026700 423222742#2 446307727#3 446307727#0 457179307#2 450252890#6 -166123299#0 166123299#2 416447060#1"/>
    </person>
    <person id="6" type="pedType1" depart="0.60">
        <walk edges="-58807376#0 58807376#0 -39321854#1 -39321854#2 -89840540#0 -89840540#1 -48242678 151334113#4 50220178#2 50220178#3 93192024#0 135588108#1 365762133 -151263118#0 151263118#2 -151263118#2"/>
    </person>
    <person id="7" type="pedType1" depart="0.70">
        <walk edges="157093963#0 476398414 123102954#4 123102955 38321274 -5219118#1 -5219118#2 5219118#3 5219118#4 -5219118#6 -5219118#7 -5219137#1 -5219137#2"/>
    </person>
    <person id="8" type="pedType1" depart="0.80">
        <walk edges="505527590#4 505527590#3 505527590#2 -505527590#1 -505527590#0 -40317920#3 -40317920#1 -40317920#0 242358064#0 -39321854#1 -39321854#2 -89840540#0 -89840540#1 -48242678 151334113#4 50220178#2 50220178#3 93192024#0 135588108#1 365762133 -151263118#0 151263118#2 -482117464 -89699186#6 -89699186#5"/>
    </person>
    <person id="9" type="pedType1" depart="0.90">
        <walk edges="39380980#5 -39380980#5 -39380980#9 -39380980#10 -26632541#0 -83347518 82790717#3 178117118#1 178117118#2 83347521 178117116#0 178117115#1 364097606#2 -88714905#3 -36794888#4 36794888#5 51087187#1 51087187#2 51087187#3 51087187#4 157028977#0 157028962#12 231170795#0 253032414 253032413#1"/>
    </person>
    <person id="10" type="pedType1" depart="1.00">
        <walk edges="121262308#0 99661909#0 99661909#1 -37014247#0 -37014247#1 37856499#0 -37856498 88732788#1 148962005 72272774#0 11408587#9 11408587#8 11408587#7 11408587#6 11408587#5 11408587#4 11408587#3 11408587#2 11408587#1 159158707#2 159158707#1 159158707#0 13855489 53790147#7 53790147#6 23201472#1 -172839358#0 172839358#1 -159542749#1 -159542749#2 -159542749#3 -159542749#4 159542749#5 -159542749#6 -159542749#7 -159542749#8 -159542738#1"/>
    </person>
    <person id="11" type="pedType1" depart="1.10">
        <walk edges="-17967394#2 455324722 17968911#3 17969172#0 17969172#1 -58807376#3 -58807376#4 -58807376#5 58807376#6 -392088973 89840558#1 -89840558#2 371543796#1 352280465#3 393414630#7"/>
    </person>
    <person id="16" type="pedType1" depart="1.60">
        <walk edges="-7390561#1 7390561#3 93320850#0 93320850#1 93320850#2 93320850#3 93320850#4 -165280261#7 -38626612#11 -157102852#1 -157102852#6 -157102852#7 -157102852#8 -157093962#12 -157093962#13 -157093962#14 -157093962#17 -157093962#18 -157188172#0 157188172#1 -157188172#3 157188172#4 33487026#3 -33487026#1 371746586#0 371746586#1 371746586#2 371746586#3 533368697#1 265278402#4 258747528#6 258747528#5 258747528#4 258747528#3 258747528#2 258747528#1 258747528#0 105289322 258139196 105289324#0 105289324#1 258747552 346040140 105289323#3 105289323#2 346040143 346040138"/>
    </person>
    <person id="17" type="pedType1" depart="1.70">
        <walk edges="-505527590#6 -482872374#2 482872374#1 25881702 -192123865#11 -192123865#9 192123865#8 -192123865#7 -192123865#6 -192123865#4 -192123865#3 -192123865#2 -192123865#1 -192123865#0 -154782359#0 -154782359#1 -154782359#2 23738101 -33487034#11 33487034#10 -33487034#9"/>
    </person>
    <person id="18" type="pedType1" depart="1.80">
        <walk edges="-83028196#7 -30816876#2 540351559 365057331#0 365057331#1 365057330#1 -158901369#1 -158901369#3 -158901369#5 682992440"/>
    </person>
    <person id="19" type="pedType1" depart="1.90">
        <walk edges="258747562#0 258747550 409721064 258747563#1 346040138 346040143 105289323#2 105289323#3 346040142 258747531 346040148#2 258747554 258139176 258139200#0 -157964859#0 33487027 371076643#1 -80737020#2 306396736#0 -80737022#3 80737022#1 80737022#0 -157102850#1 -157102850#3"/>
    </person>
    <person id="20" type="pedType1" depart="2.00">
        <walk edges="-89840548#8 27822839#2 114256578#2 776733533#3 776733533#2 776733530 456090774 456090784#1 776733531 776733533#0 351426187#2 351426184 -39322008 113849535#1 129832685#12 129832685#11 129832685#10 129832685#9 129832685#8 -39322009#2 -39322009#3 39322009#4 -39322009#6 39322009#7 -39322009#10 129832685#2 39322009#12 -392103885#0 -392103885#1 -392103885#2 -392103885#3 -35834770#0 35834770#1 35834770#2 -35834771#1 423191011 -312639527#0 312639529#0 -4520029#9 -4520029#8 423191019#0 423191015#1"/>
    </person>
    <person id="21" type="pedType1" depart="2.10">
        <walk edges="870301217#1 306396737#3 306396737#4 392104948#4 5343456#0 5343456#1 5343456#2 -851153416#0 -851153416#1 -851153416#2 -851153416#4 -851153416#5 349858766#0 370878835#7 370878835#8 26416346#1 26416346#3 376107897 338649272#0 42446215 -376107908#0 -376107908#1 376107908#2 19683871#0 19683871#1 19683650#1 27807194#1"/>
    </person>
    <person id="22" type="pedType1" depart="2.20">
        <walk edges="99661938 23737539 23737537#0 -228449209#1 -228449209#0 -4901496#4 -4901496#3 -4901496#2 -4901496#0 -4901322#2 4901322#1 143558086#2 143586044#0 143586044#1 19446386 39119422#1 33280455#0 -156822495#0 -4427791#2 4427791#3 4427791#4 12689955 35869604#2 35869604#3 35869604#4 11534172#0 159158708#1 121262308#2 121262308#1 37809631#2 99661909#1 -37014247#0 -37014247#1 37856499#2 37809634#0 37809634#1 99661895"/>
    </person>
    <person id="23" type="pedType1" depart="2.30">
        <walk edges="51476080#3 -51476080#2 -51476080#1 -51476080#0 -362368395#5 -362368395#4 -362368395#3 54293422#1 286179729 51317618 22690585 51476088 51476082#1 51476082#0 51317624#2"/>
    </person>
    <person id="24" type="pedType1" depart="2.40">
        <walk edges="457324386#1 457324386#0 457324388 457324396 -51476080#2 -51476080#1 -51476080#0 -362368395#5 -362368395#4 -362368395#3 -362368395#2 -362368395#0 40317927 -134941607#13 -134941607#12 -134941607#9 -134941607#8 -134941607#7 -313577316 -49800591#3 -160488082#1 -160488082#2 -873230260 278721408"/>
    </person>
    <person id="25" type="pedType1" depart="2.50">
        <walk edges="-83028196#2 -83028196#5 -83028196#6 -83028196#7 118192320#2 118192320#1 30765109#1 30765109#0 157188178 -851167804#0 851167804#2 -851167804#3 -30816923#1 -30816923#2 -30816923#3 -30816923#5 -426542002#0 -426542002#1 -27807186#0"/>
    </person>
    <person id="26" type="pedType1" depart="2.60">
        <walk edges="421310216#1 -226616365#2 -310707186#0 38159426#1 86969970#0 -725976304 -310707184#0 -310707184#2 113849535#19 113849535#18 113849535#17 49800591#2 -49800591#3 -313577316 113849539#2 113849539#3 313577318#2 113849535#11 113849535#10 113849535#9 113849539#6 219433524#0 219433524#1 219433524#2 113849539#8 -16786175#1 113849535#5 113849535#4 113849539#12 113849539#13 -155041002#3 -155041002#4 51510847#0 51510847#1"/>
    </person>
    <person id="27" type="pedType1" depart="2.70">
        <walk edges="157964862#1 -533368697#1 371746586#3 371746586#2 371746586#1 371746586#0 -33487026#1 33487026#3 157188172#4 -157188172#3 157188172#1 -157188172#0 -157093962#18 -157093962#17 -157093962#14 -157093962#13 -157093962#12 -157093962#11 157093962#10 -157093962#9 -157093962#8 -157093962#7 -157093962#6 -157093962#5 29418700#1 -480932493 307419997#0 307419997#1 307419997#2 307419997#3"/>
    </person>
    <person id="28" type="pedType1" depart="2.80">
        <walk edges="4498577#1 134929396#10 -51508352#6 51508352#3 679007424#2 134929400#1 695667206#3 695667206#2 695667206#1 695667206#0 31095496#1 31095496#0 -51508352#0 -51476080#7 -51476080#6 -51476080#5 -51476080#4 -51476080#3 -51476080#2 -51476080#1 -51476080#0 344664988#1 344664988#0 -149789269#7 180313803#4 -317798564#2 -149789269#4 -149789269#3 22690577#0 22690577#1 22690577#2 51476086#2 316079862 51476081#4 51476081#3 51476081#2"/>
    </person>
    <person id="29" type="pedType1" depart="2.90">
        <walk edges="12693859#3 12693859#2 12693859#1 35869619#2 35869619#1 35869619#0 35869620#0 35869622 35869623#0 35869623#1 431528627#2 431528627#0 431528626#0 142457682#1 142457683#4 142457683#3 142457683#2 142457683#1 142457683#0 4417016#1 332184121#2 -332184121#5 -10436937 23738123#1 75533394#0 -75533394#1 72244443"/>
    </person>
    <person id="30" type="pedType1" depart="3.00">
        <walk edges="4262221#2 134929396#14 -51508352#12 78713657#1 352895424 352894103#17 678898007 678898006#0 678898006#1 678898006#2 352253631#5 352253631#4 352253631#3 352253631#2 352253631#1 -93072396#4 -93072396#3 -93072396#1 -93072396#0 30816863#0 30816863#1 100321826#2 100321826#1 100321826#0 831762506#1 317934876#0 155603782#1 155603789#6 -154575774#1 -154575774#2 -154575774#3 -851167804#0 -281932879"/>
    </person>
    <person id="31" type="pedType1" depart="3.10">
        <walk edges="205612298#10 392103893#1 205612298#7 205612298#6 205612298#5 205612298#4 205612298#3 205612298#2 205612298#1 205612298#0 205612300#3 352285611#1 352285613#0 122159103 120333557#4 -117849719#3 -117849719#4 117849719#5 119748210"/>
    </person>
    <person id="32" type="pedType1" depart="3.20">
        <walk edges="125009454#0 125009454#1 -125009454#2 4005733#3 -4005733#2 -38862846#1 38862846#0 -315224432 -218270484#1 -165280261#0 5219140 -5219137#2 488348595"/>
    </person>
    <person id="33" type="pedType1" depart="3.30">
        <walk edges="86414071 5559663#1 5559663#0 174695010#2 174695010#1 174695010#0 14477490 13855416#4 159091648#1 159091648#0 39106457#4 -235912727#5 -235912727#4 235912727#3 -235912727#2 -235912727#1 -235912727#0 -10436938#3 -10436938#2 10436938#2"/>
    </person>
    <person id="34" type="pedType1" depart="3.40">
        <walk edges="319016958#1 319016958#2 319016958#3 319016960#0 682992453 -157102850#5 -157102850#6 -301541142#0 -301541142#3 -301541142#4 -301541142#5 300933267#12 -157093962#17 -157093962#14 -157093962#13 -157093962#12 -157102852#8 -157102852#7 -157102852#6 -157102852#1 123244287 123244286 -157188167#1 27807193#1 51778899#3 51778899#2 51778899#1 51778899#0 123106242#3 123106242#2 123106242#1 123106242#0 338649281#1 157093963#3"/>
    </person>
    <person id="35" type="pedType1" depart="3.50">
        <walk edges="851167804#2 -851167804#0 -154575774#3 -154575774#2 -154575774#1 155603789#6 155603782#1 317934876#0 831762506#1 100321826#0 100321826#1 100321826#2 30816863#1 30816863#0 -93072396#0 -93072396#1 -93072396#3 -93072396#4 352253631#1 352253631#2 352253631#3 352253631#4 33126943#5 33126943#6 33126943#7 33126943#8 -155586944#0 -89699184#0 30603896#0 -89840550#5 -89840550#4 -89840550#3"/>
    </person>
    <person id="36" type="pedType1" depart="3.60">
        <walk edges="155603789#6 155603782#1 317934876#0 540351559 365057331#0 365057331#1 365057330#1 -158901369#1 -158901369#3 -158901369#5 -158901369#7 -158901369#8 -158901369#9 -158901369#10 -80819310#0 -80819310#1 -80239247#0 -80239247#1 -80239247#2 -80239246#1 17962377#0 17960546#0 668342584#0 668342584#1 275157011#1 275157011#0 275157007 275157010#1"/>
    </person>
    <person id="38" type="pedType1" depart="3.80">
        <walk edges="768442404#1 -392069506#1 393414630#5 393414630#6 393414630#7 352280457#0 352280457#6 352280464#0 352280464#1 352280464#2 -53530907#7 -392069505 -89840550#0 -89840550#1 -89840550#2 -89840550#3 -89840550#4 -89840550#5 30603896#0 -89699184#0 352272295#4"/>
    </person>
    <person id="41" type="pedType1" depart="4.10">
        <walk edges="349825375 308976554 -127478189#1 127478189#0 142808367#2 142808368 37666060#1 845930951#3 142786391#1 142786391#2 -38868688#0 -38868688#1 -328027165#0 -328027165#1 151866167#6 151866167#4 108127803#2 108127809#0 108127804#1 108127804#0 -157028289#8 -157028289#7 -157028289#6 -157028289#4 -157028289#3 -157028289#2 -157028289#1 -53533144#0"/>
    </person>
    <person id="43" type="pedType1" depart="4.30">
        <walk edges="-28019886#3 -28019886#4 -28019886#5 -362368395#17 -165492307 165492307"/>
    </person>
    <person id="44" type="pedType1" depart="4.40">
        <walk edges="-4262228#1 113849535#1 129832685#12 129832685#11 129832685#10 129832685#9 129832685#8 -39322009#2 -39322009#3 39322009#4 -39322009#6 39322009#7 -39322009#10 129832685#2 39322009#12 353017404#3 353017404#4 851139057#2 -851139057#1 352894103#2 851113020#3"/>
    </person>
    <person id="45" type="pedType1" depart="4.50">
        <walk edges="244524128 244524127#0 244524129 158399766#0 158399766#1 -88894451#0 -88894451#1 -88894451#2 -88894451#3 -365762132#0 -365762132#1 -365762132#2 157106408#1 157106408#0 -80819305 -80819311 -300559210 -53267456#1 -53267456#0 -157106407 -157102853#1 -157102853#0 -157093971#2"/>
    </person>
    <person id="46" type="pedType1" depart="4.60">
        <walk edges="-8163015#0 105690838#1 -172709302#0 -172709305 -5786855#2 5786855#1 -86414062#1 4005733#3 -4005733#2 -23546005#9 88356741#1 88356741#0 316499758 316499784#0 316499742"/>
    </person>
    <person id="47" type="pedType1" depart="4.70">
        <walk edges="254470577 -152118096#2 -152118096#1 205612298#7 205612298#6 205612298#5 205612298#4 205612298#3 205612298#2 205612298#1 205612298#0 205612300#3 352285611#1 352285613#0 122159103 122159109#4 122159109#3 122159109#2 122159109#1 122159109#0 223163710 309990221#0 376401312#8 -149935566#0 -149935566#1 -149935566#2 -58561800#0 58561800#1 -58561799#1 -147557400#0 -147557400#2 -147557400#3 -147557400#5 -147557400#6 -392103894#0 -392103894#1 -392103894#2 -392103894#3 -155040996#0 -355553864"/>
    </person>
    <person id="48" type="pedType1" depart="4.80">
        <walk edges="-631584332#2 -38625470 37922478#3 -401962770#0 401962770#1 -401962770#2 38585974#0 38585974#1 143558086#2 143586044#0 143586044#1 19446386 39119422#1 33280455#0 -156822495#0 -4427791#2 4427791#3 4427791#4 12689955 35869604#2 35869604#3"/>
    </person>
    <person id="49" type="pedType1" depart="4.90">
        <walk edges="155040996#0 -392103894#3 -392103894#2 -392103894#1 -392103894#0 -147557400#6 -147557400#5 -147557400#3 -147557400#2 -147557400#0 -58561799#1 58561800#1 -58561800#0 -149935566#2 -149935566#1 -149935566#0 376401312#8 309990221#0 223163710 122159109#0 122159109#1 122159109#2 122159109#3 122159109#4 120333557#4 -117849719#2"/>
    </person>
    <person id="50" type="pedType1" depart="5.00">
        <walk edges="136061578 133539763#1 133539763#0 129832685#17 114256578#5 -155041000#2 -155041000#1 -155041000#0 51510847#0 51510847#1 51510847#2 391390199#2 -4645398 -16786179#5 -16786179#7 -16786179#8 -16786179#9 -16786179#10 134929400#1 695667206#3 695667206#2 695667206#1 -695667212 119747970#0 31095496#3 309990231 309990229#1 309990229#0 376401312#5 309990227 122159095 122159109#3 122159109#4 122159103 352285613#0 352285611#1 205612300#3 205612298#0 376401316#2 83730069 392069509"/>
    </person>
    <person id="51" type="pedType1" depart="5.10">
        <walk edges="258139176 258139200#0 -157964859#0 33487027 371076643#1 -80737020#2 306396736#0 -80737022#3 80737022#1 80737022#0 -157102850#1 -157102850#3 -157102850#5 300559241"/>
    </person>
    <person id="52" type="pedType1" depart="5.20">
        <walk edges="157188170#1 -332176205#2 123244287 123244286 -157188167#1 27807193#1 51778899#3 51778899#2 51778899#1 51778899#0 -123106263#1 123106279#10 96246038#3 123106287 96246039#1 96246039#2 96246039#3 96246039#4 123106279#3 123106279#4 710645805#0 710645805#1 96246041#1 161970159#1 161970160#0 23960591#2 23960591#1 23960591#0 5342789#1 -39380980#3 -39380980#2 -39380980#1 -39380980#0"/>
    </person>
    <person id="53" type="pedType1" depart="5.30">
        <walk edges="393428884 134929400#9 34114237#2 393414630#0 205612298#0 205612298#1 205612298#2 205612298#3 205612298#4 205612298#5 205612298#6 205612298#7 392103893#1 205612298#10 205612298#11 -58807374#10 -58807374#4 -58807374#3 58807374#0 -505527590#0 505527590#1 -505527590#2 -505527590#3 -505527590#4 482872375 248290099 154782357"/>
    </person>
    <person id="54" type="pedType1" depart="5.40">
        <walk edges="331867113 34140425#2 34140425#1 34140425#0 421145356#1 421145355#0 -421145355#1 421145355#2 24039836#9 24039836#8 24039836#7 24039836#6 24039836#5 24039836#4 24039836#3 24039836#2 24039836#1 24039836#0 258139200#0 258139176 258747554 346040148#3 258139189 258139186 100024668 258139194#1 214785685#2 214785685#3 151542344#2 151542344#1 392072302#2 392072302#1 392072302#0"/>
    </person>
    <person id="55" type="pedType1" depart="5.50">
        <walk edges="35834770#1 -35834770#0 -392103885#3 -312549780 -24998128#0 161766362#8 -161766362#5 -161766362#2 -24998222#2 -24998222#1 -24998222#0 -30616063#1 160026050#0 37666060#1 142808368 142808367#2 127478189#0 127478189#1 308976554 308976555"/>
    </person>
    <person id="56" type="pedType1" depart="5.60">
        <walk edges="-274154212#0 39322009#4 -312550030#1 -312550030#0 -155040996#4 -155040996#3 -155040996#2 -155040996#0 -392103894#4 -392103894#5 -392103894#6 -392103894#7 490386710#1 391288833#6 391288833#5 391288833#4 -456486315#1 -456486315#3 313576545#0 161773732#3 161773732#2 -450205599#0 413591147"/>
    </person>
    <person id="57" type="pedType1" depart="5.70">
        <walk edges="475480605 475480607 218024413#1 218024413#2 218024413#3 218024413#4 218024413#5 231373147 231373143 231373148 231373151#1 231373151#2 421200687#2 421200687#1 -421200687#0 456746081 -456486315#3 -456486315#1 391288833#4 217182476 22690755#1 -217182475 46338790#1 46338790#2 46338790#3 46338790#4 -16786171#4 -16786171#3 -16786171#2 -16786171#1 4645396#0 -4645396#2 -4520029#10 -4520029#9 -4520029#8 -4520029#7 -4520029#5 -4520029#4 -4520029#2 4520029#1"/>
    </person>
    <person id="58" type="pedType1" depart="5.80">
        <walk edges="37809631#0 11535166 37856497 37809625#0 37809625#1 37809625#2 37809625#3 159091648#0 159091648#1 13855416#4 14477490 174695010#0 174695010#1 174695010#2 5559663#0 5559663#1 86414071 86414064"/>
    </person>
    <person id="59" type="pedType1" depart="5.90">
        <walk edges="-93192044#0 50220178#3 50220178#2 -456746079 -19422996#1 635016129#0 635016128 635016132 449741721#2 449741709 449741716#0 449741716#1 449741696#1 449741696#0"/>
    </person>
    <person id="60" type="pedType1" depart="6.00">
        <walk edges="252912471#2 252912473 205612298#5 205612298#4 205612298#3 205612298#2 205612298#1 205612298#0 205612300#3 352285611#1 352285613#0 122159103 120333557#4 120333557#3 120333557#2 120333557#1 144291479 144291493#1 144291493#2 144291493#3 189541421 392040344#1 344664988#1 344664988#0 -149789269#7 22690583#3"/>
    </person>
    <person id="61" type="pedType1" depart="6.10">
        <walk edges="154782356#0 154782352#0 -154782352#1 -154782352#2 -86414059#0 86414059#1 86414059#2 -86414059#3 86414059#4 86414059#5 -86414059#6 24246446#3 -24246461 24246432#2 24246453 24246421#1 172709304 87358347#3 -23969677 -144927050"/>
    </person>
    <person id="63" type="pedType1" depart="6.30">
        <walk edges="278711173 278711170#1 506111202#1 506111202#2 134929400#9 134929400#8 134929400#7 134929400#4 134929400#3 134929400#2 695667206#3 695667206#2 695667206#1 695667206#0 31095496#1 31095496#0 -51508352#0 -149935566#0 -149935566#1 -149935566#2 -58561800#0 58561800#1 -58561799#1 -147557400#0 -147557400#2 -147557400#3 -147557400#5 -147557400#6 219433518#0 219432271#0"/>
    </person>
    <person id="64" type="pedType1" depart="6.40">
        <walk edges="-845930953#1 218877946#4 845930951#3 142786391#1 142786391#2 -29279743#13 -29279743#12 -29279743#10 -29279743#9 29279743#8 -29279743#7 -29279743#6 -29279743#5 29279743#1 29279743#0 -157028977#10 -157028977#9 -157028977#8 -157028977#7 -157028977#6 307219424#0 157028977#0 -4055321#1 307219419#1 -307219419#0"/>
    </person>
    <person id="65" type="pedType1" depart="6.50">
        <walk edges="250329224#1 53861542#1 53861544#1 250329949#0 53861545 308976557 55456901 -26632542#1 -26632542#2 -4651573#8 -4651573#7 -4651573#6 -4651573#5 -4651573#3 -39380980#0 39380980#1"/>
    </person>
    <person id="67" type="pedType1" depart="6.70">
        <walk edges="108127809#0 -108127803#1 151866167#2 151866167#1 151866167#0 -475109927#3 -475109927#2 -475109927#1 -475109927#0 -466144411 475109924#0 475109924#1 409064421 151866165#2 151866165#3 -273936882#4"/>
    </person>
    <person id="68" type="pedType1" depart="6.80">
        <walk edges="49798616#2 49798616#1 -49798616#0 99661938 23082544#3 23082544#2 23082544#1 23082544#0 -6007833 41518698#1 23737436#2 939245519 127011573#1 114189674#2 156640186#1 23142809#0 23142809#1"/>
    </person>
    <person id="69" type="pedType1" depart="6.90">
        <walk edges="505114045#1 455394532#1 505114061 505114020 505114079 505114055#0 505114055#1 505114063#1 -253984991#0 253984991#1 -505114029#2 -38868689#1 272438846#5 161766362#1 -161766362#2 -161766362#5 161766362#8 81270237#4 391390200#1 391390200#0 81270237#1 -39322226#2 39322226#1 312549779#3 312549779#2 274151220"/>
    </person>
    <person id="70" type="pedType1" depart="7.00">
        <walk edges="-157188170#5 -157188170#3 -157188170#2 -157188170#1 -332176205#2 123244287 123244286 -157188167#1 27807193#1 51778899#3 51778899#2 51778899#1 51778899#0 123106242#3 123106242#2 123106242#1 123106242#0 338649281#1 82280408#2 82280408#3 42446215 -376107908#0 -376107908#1"/>
    </person>
    <person id="71" type="pedType1" depart="7.10">
        <walk edges="4005735#2 218848676#8 -129552585 -30816876#2 540351559 365057331#0 365057331#1 365057330#1 -158901369#1 300962782"/>
    </person>
    <person id="72" type="pedType1" depart="7.20">
        <walk edges="246862111#1 246862111#0 4056132#4 4056132#5 5403376#3 4698755#3 311337461#1 311337461#0 242729943#1 19683253#2 19683253#1 178116640#1 178116640#0 19683397#7 19683160#0 19682893#3 19682893#2"/>
    </person>
    <person id="73" type="pedType1" depart="7.30">
        <walk edges="307420002#0 307420002#1 307420002#2 307420003#0 307420003#1 493457013 493457012 307419997#2 307419997#1 307419997#0 -480932493 29418700#1 -157093962#5 -157093962#6 -157093962#7 -157093962#8 -157093962#9 157093962#10 -157093962#11 -157093962#12 -157093962#13 -157093962#14 -157093962#17 -300933267#0 -300933267#1 -157188171#2 -157188171#1 -157188167#6 157188167#7 -157188168#0 -157188177#1 -157188177#2 165280290#3 -165280290#2 165280290#1 -165280265#0 165280265#1 50220179#2 305294149#1"/>
    </person>
    <person id="74" type="pedType1" depart="7.40">
        <walk edges="-4827269#0 -23084357 -49798615#0 -592769807 -49798616#1"/>
    </person>
    <person id="75" type="pedType1" depart="7.50">
        <walk edges="292623507#1 -292623507#1 37922478#0 37922478#1 37922478#2 37922478#3 -401962770#0 401962770#1 -401962770#2 38585974#0 38585974#1 143558086#2 143586044#0 143586044#1 19446386 39119422#1 33280455#0 -156822495#0 -4427791#2 4427791#3 4427791#4 12689955 35869604#2 35869604#3 35869604#4 11534172#0 159158708#1 121262308#2 121262308#1 37809631#2 99661909#1 -37014247#0 -37014247#1 37856499#0 -37856498 88732788#1 148962005 72272774#0 11408587#10"/>
    </person>
    <person id="76" type="pedType1" depart="7.60">
        <walk edges="353017403#6 -360485248 353017403#4 37280850#1 353017404#3 353017404#4 851139057#2 -851139057#1 -30616063#3 -30616063#2 -30616063#1 160026050#0 39378780#1 39378780#2 552799312#0 51086843#0 686147882"/>
    </person>
    <person id="77" type="pedType1" depart="7.70">
        <walk edges="4262228#1 114256578#5 129832685#17 129832685#16 129832685#15 113849539#15 -39322008 351426184 351426187#2 351426187#1 351426186 377287451 308715440#1"/>
    </person>
    <person id="78" type="pedType1" depart="7.80">
        <walk edges="113849535#19 113849535#18 113849535#17 49800591#2 -49800591#3 -313577316 113849539#2 113849539#3 313577318#2 113849535#11 113849535#10 219433518#2 -313577318#3"/>
    </person>
    <person id="79" type="pedType1" depart="7.90">
        <walk edges="777646482#1 -456486315#3 -456486315#1 391288833#4 391288833#5 391288833#6 490386710#1 -392103894#7 -392103894#6 -392103894#5 -392103894#4 -392103894#3 -392103894#2 -392103894#1 -392103894#0 113849539#6 219433524#0 219433524#1 219433524#2 113849539#8 -16786175#1 113849535#5 113849535#4 113849539#12 113849539#13 -155041002#3 -155041002#4 51510853#0 51510853#1 51510851 31094450#4 23885110#12 23885024#6"/>
    </person>
    <person id="80" type="pedType1" depart="8.00">
        <walk edges="459027221#0 -151996487#2 151996487#0 -307180618 -39322684 51087187#8 -4055321#1 -4055321#0 -4055341#2 -4055341#1 15805471#9 15805471#8 129554904#0 129554904#1 129554904#2 129554904#3 129554904#4 129554904#5 129554904#6 15805471#4 27496911#2 27496911#1 27496911#0"/>
    </person>
    <person id="81" type="pedType1" depart="8.10">
        <walk edges="82489107#1 82489107#0 23142711 99661939 99661928#1 99661928#2 99663070#1 99663070#2 99663070#3 99663070#4 99663070#5"/>
    </person>
    <person id="82" type="pedType1" depart="8.20">
        <walk edges="-155055228#1 78713657#1 352895424 352894103#17 678898007 678898006#0 678898006#1 678898006#2 352253631#5 352253631#4 352253631#3 352253631#2 352253631#1 -93072396#4 -93072396#3 -93072396#1 -93072396#0 30816863#0 30816863#1 100321826#2 100321826#1 100321826#0 831762506#1 -30816876#2 -129552585 218848676#8 -392104939#0 392104939#2"/>
    </person>
    <person id="83" type="pedType1" depart="8.30">
        <walk edges="134929396#15 -89840548#5 -89840548#6 -89840548#8 93753184#7 114256576#1 114256576#0 114256582#0 -27822839#7 -27822839#10 851166561#2 127677134#2 -4519926#1 4519926#4 -4698761#1 127478189#0"/>
    </person>
    <person id="84" type="pedType1" depart="8.40">
        <walk edges="346040148#1 346040148#2 258747554 258139176 258139200#0 -157964859#0 33487027 -4662588 38626594 157188172#4 -157188172#3 157188172#1 -157188172#0 301541142#7 -301541142#5 -301541142#4 480932506"/>
    </person>
    <person id="85" type="pedType1" depart="8.50">
        <walk edges="126749625#1 23303956#0 23303956#1 157946255#0 143586050#2 143586050#1 -143558110#1 377796593#57 156822489 -143558083#0 -143558083#1 143586044#0 143586044#1 19446386 39119422#1 33280455#0 -156822495#0 332184121#2 871942199#0 35869604#0"/>
    </person>
    <person id="86" type="pedType1" depart="8.60">
        <walk edges="19683797#0 376107908#2 -376107908#1 -376107908#0 42446215 82280408#3 82280408#2 338649281#1 123106242#0 123106242#1 123106242#2 123106242#3 51778899#0 51778899#1 51778899#2 51778899#3 27807193#1 -38321273#1 -38321273#0 -206863693#11 -206863693#7 96231856#0 123102954#7 -122270645#0 122270645#1 122270640#0 122270641#0 122270641#1"/>
    </person>