<?xml version="1.0" encoding="UTF-8"?>

<routes xmlns:xsi="http://www.w3.org/2001/XMLSchema-instance" xsi:noNamespaceSchemaLocation="http://sumo.dlr.de/xsd/routes_file.xsd">

    <vType id="ped_pedestrian" vClass="pedestrian"/>
    <vType id="car_vh" accel="0.8" decel="4.5" sigma="0.5" length="5" maxSpeed="70"/>

<person id="ped0" depart="0.00" type="ped_pedestrian">
<walk from="-82790717#5" to="19683461#0"/>
</person>
<person id="ped1" depart="5.00" type="ped_pedestrian">
<walk from="-82790717#5" to="19683461#0"/>
</person>
<person id="ped2" depart="10.00" type="ped_pedestrian">
<walk from="-82790717#5" to="19683461#0"/>
</person>
<person id="ped3" depart="15.00" type="ped_pedestrian">
<walk from="-82790717#5" to="19683461#0"/>
</person>
<person id="ped4" depart="20.00" type="ped_pedestrian">
<walk from="-82790717#5" to="19683461#0"/>
</person>
<person id="ped5" depart="25.00" type="ped_pedestrian">
<walk from="-82790717#5" to="19683461#0"/>
</person>
<person id="ped6" depart="30.00" type="ped_pedestrian">
<walk from="-82790717#5" to="19683461#0"/>
</person>
<person id="ped7" depart="35.00" type="ped_pedestrian">
<walk from="-82790717#5" to="19683461#0"/>
</person>
<person id="ped8" depart="40.00" type="ped_pedestrian">
<walk from="-82790717#5" to="19683461#0"/>
</person>
<person id="ped9" depart="45.00" type="ped_pedestrian">
<walk from="-82790717#5" to="19683461#0"/>
</person>
<person id="ped10" depart="50.00" type="ped_pedestrian">
<walk from="-82790717#5" to="19683461#0"/>
</person>
<person id="ped11" depart="55.00" type="ped_pedestrian">
<walk from="-82790717#5" to="19683461#0"/>
</person>
<person id="ped12" depart="60.00" type="ped_pedestrian">
<walk from="-82790717#5" to="19683461#0"/>
</person>
<person id="ped13" depart="65.00" type="ped_pedestrian">
<walk from="-82790717#5" to="19683461#0"/>
</person>
<person id="ped14" depart="70.00" type="ped_pedestrian">
<walk from="-82790717#5" to="19683461#0"/>
</person>
<person id="ped15" depart="75.00" type="ped_pedestrian">
<walk from="-82790717#5" to="19683461#0"/>
</person>
<person id="ped16" depart="80.00" type="ped_pedestrian">
<walk from="-82790717#5" to="19683461#0"/>
</person>
<person id="ped17" depart="85.00" type="ped_pedestrian">
<walk from="-82790717#5" to="19683461#0"/>
</person>
<person id="ped18" depart="90.00" type="ped_pedestrian">
<walk from="-82790717#5" to="19683461#0"/>
</person>
<person id="ped19" depart="95.00" type="ped_pedestrian">
<walk from="-82790717#5" to="19683461#0"/>
</person>
<person id="ped20" depart="100.00" type="ped_pedestrian">
<walk from="-82790717#5" to="19683461#0"/>
</person>
<person id="ped21" depart="105.00" type="ped_pedestrian">
<walk from="-82790717#5" to="19683461#0"/>
</person>
<person id="ped22" depart="110.00" type="ped_pedestrian">
<walk from="-82790717#5" to="19683461#0"/>
</person>
<person id="ped23" depart="115.00" type="ped_pedestrian">
<walk from="-82790717#5" to="19683461#0"/>
</person>
<person id="ped24" depart="120.00" type="ped_pedestrian">
<walk from="-82790717#5" to="19683461#0"/>
</person>
<person id="ped25" depart="125.00" type="ped_pedestrian">
<walk from="-82790717#5" to="19683461#0"/>
</person>
<person id="ped26" depart="130.00" type="ped_pedestrian">
<walk from="-82790717#5" to="19683461#0"/>
</person>
<person id="ped27" depart="135.00" type="ped_pedestrian">
<walk from="-82790717#5" to="19683461#0"/>
</person>
<person id="ped28" depart="140.00" type="ped_pedestrian">
<walk from="-82790717#5" to="19683461#0"/>
</person>
<person id="ped29" depart="145.00" type="ped_pedestrian">
<walk from="-82790717#5" to="19683461#0"/>
</person>
<person id="ped30" depart="150.00" type="ped_pedestrian">
<walk from="-82790717#5" to="19683461#0"/>
</person>
<person id="ped31" depart="155.00" type="ped_pedestrian">
<walk from="-82790717#5" to="19683461#0"/>
</person>
<person id="ped32" depart="160.00" type="ped_pedestrian">
<walk from="-82790717#5" to="19683461#0"/>
</person>
<person id="ped33" depart="165.00" type="ped_pedestrian">
<walk from="-82790717#5" to="19683461#0"/>
</person>
<person id="ped34" depart="170.00" type="ped_pedestrian">
<walk from="-82790717#5" to="19683461#0"/>
</person>
<person id="ped35" depart="175.00" type="ped_pedestrian">
<walk from="-82790717#5" to="19683461#0"/>
</person>
<person id="ped36" depart="180.00" type="ped_pedestrian">
<walk from="-82790717#5" to="19683461#0"/>
</person>
<person id="ped37" depart="185.00" type="ped_pedestrian">
<walk from="-82790717#5" to="19683461#0"/>
</person>
<person id="ped38" depart="190.00" type="ped_pedestrian">
<walk from="-82790717#5" to="19683461#0"/>
</person>
<person id="ped39" depart="195.00" type="ped_pedestrian">
<walk from="-82790717#5" to="19683461#0"/>
</person>
<person id="ped40" depart="200.00" type="ped_pedestrian">
<walk from="-82790717#5" to="19683461#0"/>
</person>
<person id="ped41" depart="205.00" type="ped_pedestrian">
<walk from="-82790717#5" to="19683461#0"/>
</person>
<person id="ped42" depart="210.00" type="ped_pedestrian">
<walk from="-82790717#5" to="19683461#0"/>
</person>
<person id="ped43" depart="215.00" type="ped_pedestrian">
<walk from="-82790717#5" to="19683461#0"/>
</person>
<person id="ped44" depart="220.00" type="ped_pedestrian">
<walk from="-82790717#5" to="19683461#0"/>
</person>
<person id="ped45" depart="225.00" type="ped_pedestrian">
<walk from="-82790717#5" to="19683461#0"/>
</person>
<person id="ped46" depart="230.00" type="ped_pedestrian">
<walk from="-82790717#5" to="19683461#0"/>
</person>
<person id="ped47" depart="235.00" type="ped_pedestrian">
<walk from="-82790717#5" to="19683461#0"/>
</person>
<person id="ped48" depart="240.00" type="ped_pedestrian">
<walk from="-82790717#5" to="19683461#0"/>
</person>
<person id="ped49" depart="245.00" type="ped_pedestrian">
<walk from="-82790717#5" to="19683461#0"/>
</person>

</routes>
