[General]
sim-time-limit = 3600s
network = crownet.artery.World
*.withStoryboard = false
*.storyboard.python = "demo"


*.traci.core.version = -1
*.traci.core.selfStopping = false
*.traci.launcher.hostname = "vadere"
*.traci.launcher.port = 9998
*.traci.launcher.vadereScenarioPath = "vadere/scenarios/test.scenario"

*.pNode[*].wlan[*].typename = "VanetNic"
*.pNode[*].wlan[*].radio.transmitter.power = 200 mW

*.pNode[*].middleware.updateInterval = 0.1s
*.pNode[*].middleware.datetime = "2013-06-01 12:35:00"
*.pNode[*].middleware.services = xmldoc("services.xml")
*.pNode[*].middleware.DenService.useCases = xmldoc("den-use-cases.xml")

*.pNode[*].vanetza.position.typename = "PedestrianPositionProvider"
