[General]
sim-time-limit = 3600s
network = rover.artery.World
*.withStoryboard = false
*.storyboard.python = "demo"


*.traci.core.version = -1
*.traci.core.selfStopping = false
*.traci.launcher.hostname = "vadere"
*.traci.launcher.port = 9998
*.traci.launcher.vadereScenarioPath = "vadere/scenarios/test.scenario"

*.node[*].wlan[*].typename = "VanetNic"
*.node[*].wlan[*].radio.transmitter.power = 200 mW

*.node[*].middleware.updateInterval = 0.1s
*.node[*].middleware.datetime = "2013-06-01 12:35:00"
*.node[*].middleware.services = xmldoc("services.xml")
*.node[*].middleware.DenService.useCases = xmldoc("den-use-cases.xml")

*.node[*].vanetza.position.typename = "PedestrianPositionProvider"
