[General]
network = rover.simulations.networks.IEEE80211_AdHoc_Vadere
experiment-label = ${datetime}
output-scalar-file = ${resultdir}/${configname}_${experiment}/vars_${iterationvarsf}rep_${repetition}.sca
output-vector-file = ${resultdir}/${configname}_${experiment}/vars_${iterationvarsf}rep_${repetition}.vec
cmdenv-output-file = ${resultdir}/${configname}_${experiment}/vars_${iterationvarsf}rep_${repetition}.out
sim-time-limit = 180s
**.vector-recording = true
**.scalar-recording = true
**.bin-recording = false
**.result-recording-modes = default,-histogram
**.ip.*.scalar-recording = false
**.ip.*.vector-recording = false
**.lo.*.scalar-recording = false
**.lo.*.vector-recording = false
record-eventlog = false
**.mobility.constraintAreaMinZ = 0m
**.mobility.constraintAreaMaxZ = 0m
*.manager.updateInterval = 0.4s
*.manager.margin = 0
*.manager.autoShutdown = true

[Config basic]
network = rover.simulations.networks.IEEE80211_AdHoc_Vadere
*.numStationary = 2
*.station[0].mobility.initFromDisplayString = false
*.station[0].mobilityType = "StationaryMobility"
*.station[0].mobility.initialX = 30m
*.station[0].mobility.initialY = 93.5m
*.station[1].mobility.initFromDisplayString = false
*.station[1].mobilityType = "StationaryMobility"
*.station[1].mobility.initialX = 85m
*.station[1].mobility.initialY = 45m
*.hostMobile[*].ipv4.configurator.typename = "HostAutoConfigurator"
*.hostMobile[*].ipv4.configurator.interfaces = "wlan0"
*.hostMobile[*].ipv4.configurator.mcastGroups = "224.0.0.10"
*.hostMobile[*].ipv4.configurator.addressBase = "20.0.5.0"
*.hostMobile[*].ipv4.configurator.netmask = "255.0.0.0"
**wlan[*].radio.transmitter.power = 2mW
**wlan[*].radio.receiver.sensitivity = -85dBm
**wlan[*].radio.receiver.snirThreshold = 6dB

[Config scalar]
*.radioMedium.typename = "Ieee80211ScalarRadioMedium"
*.radioMedium.pathLoss.typename = "LogNormalShadowing"
*.radioMedium.obstacleLoss.typename = "IdealObstacleLoss"
**.errorModel.snirMode = "min"
**.receiver.snirThresholdMode = "min"

[Config dimensional]
*.radioMedium.typename = "Ieee80211DimensionalRadioMedium"
*.radioMedium.pathLoss.typename = "LogNormalShadowing"
*.radioMedium.obstacleLoss.typename = "IdealObstacleLoss"
**wlan[*].radio.typename = "Ieee80211DimensionalRadio"
**.errorModel.snirMode = "mean"
**.receiver.snirThresholdMode = "mean"

[Config vadereBasic]
extends = basic
network = rover.simulations.networks.IEEE80211_AdHoc_Vadere
*.station[0].numApps = 1
*.station[0].app[0].typename = "UdpDetourApp"
*.station[0].app[0].incidentTime = 100s
*.station[0].app[0].reason = "E2002_closed"
*.station[0].app[0].closedTarget = "2002"
*.station[0].app[0].alternativeRoute = "2003,2001"
*.station[0].app[0].repeatTime = 600s
*.station[0].app[0].repeateInterval = 1s
*.station[0].app[0].localPort = 3000
*.station[0].app[0].startTime = 0s
*.station[0].app[0].stopTime = 300s
*.station[0].app[0].destAddresses = "224.0.0.10"
*.station[0].app[0].destPort = 3000
*.station[0].app[0].receiveBroadcast = true
*.station[0].app[0].joinLocalMulticastGroups = true
*.station[0].app[0].multicastInterface = "wlan0"
*.station[0].app[0].messageLength = 3kB
*.station[1].numApps = 1
*.station[1].app[0].typename = "UdpSink"
*.station[1].app[0].localPort = 5000
*.hostMobile[*].numApps = 2
*.hostMobile[*].app[0].typename = "UdpDetourAppVadere"
*.hostMobile[*].app[0].localPort = 3000
*.hostMobile[*].app[0].startTime = 0s
*.hostMobile[*].app[0].stopTime = 300s
*.hostMobile[*].app[0].destAddresses = "224.0.0.10"
*.hostMobile[*].app[0].destPort = 3000
*.hostMobile[*].app[0].receiveBroadcast = true
*.hostMobile[*].app[0].joinLocalMulticastGroups = true
*.hostMobile[*].app[0].multicastInterface = "wlan0"
*.hostMobile[*].app[0].notifyMobilityProvider = true
*.hostMobile[*].app[0].messageLength = 3kB
*.hostMobile[*].app[1].typename = "UdpBasicApp"
*.hostMobile[*].app[1].destAddresses = "station[1]"
*.hostMobile[*].app[1].sendInterval = truncnormal(20ms, 1ms)
*.hostMobile[*].app[1].destPort = 5000
*.hostMobile[*].app[1].messageLength = 5000B
*.hostMobile[*].app[1].packetName = "UDPBackground"
*.hostMobile[*].app[1].startTime = truncnormal(99.5s, 0.2s)
*.hostMobile[*].app[1].stopTime = 300s
*.manager.host = "vadere"
*.manager.port = 9998
*.manager.moduleType = "pedestrian=org.car2x.veins.subprojects.veins_inet.VeinsInetPerson"
*.manager.moduleName = "pedestrian=hostMobile"
*.manager.margin = 0
*.manager.moduleDisplayString = ""#"pedestrian='i=veins/node/pedestrian;is=vs'"
*.manager.vadereCachePath = "vadere-cache/veins-test"
*.manager.visualizer = "visualization"
*.numMappings = 1
*.mappingDistribution[0].mapping_root = "pedestrian"
*.mappingDistribution[0].mapping_moduleName = "p1=hostMobile p2=hUeq"
*.mappingDistribution[0].mapping_moduleType = "p1=org.car2x.veins.subprojects.veins_inet.VeinsInetPerson p2=rover.nodes.UnequippedHost"
*.mappingDistribution[0].mapping_distribution = "p1=1.0 p2=0.0"
*.physicalEnvironment.config = xmldoc("vadere/scenarios/simple_detour_100x177.env.xml")
*.physicalEnvironment.spaceMinX = -10m
*.physicalEnvironment.spaceMinY = -10m
*.physicalEnvironment.spaceMinZ = -10m
*.physicalEnvironment.spaceMaxX = 200m
*.physicalEnvironment.spaceMaxY = 150m
*.physicalEnvironment.spaceMaxZ = 100m

[Config vadereScalar]
extends = vadereBasic, scalar

[Config vadereDimensional]
extends = vadereBasic, dimensional

[Config w80211_miat0_33]
extends = vadereDimensional
*.manager.vadereScenarioPath = "vadere/scenarios/simple_detour_100x177_miat0.33.scenario"

[Config w80211_miat0_5]
extends = vadereDimensional
*.manager.vadereScenarioPath = "vadere/scenarios/simple_detour_100x177_miat0.5.scenario"

[Config w80211_miat0_85]
extends = vadereDimensional
*.manager.vadereScenarioPath = "vadere/scenarios/simple_detour_100x177_miat0.85.scenario"

[Config w80211_miat1_25]
extends = vadereDimensional
*.manager.vadereScenarioPath = "vadere/scenarios/simple_detour_100x177_miat1.25.scenario"

[Config final]
extends = w80211_miat1_25

