<?xml version="1.0" encoding="UTF-8"?>
<!-- generated on 2021-06-25 14:19:02.020168 by $Id$ v1_9_2+0000-4206cfae24
  options: <doubleminus>configuration-file cfg.xml
-->
<routes xmlns:xsi="http://www.w3.org/2001/XMLSchema-instance" xsi:noNamespaceSchemaLocation="http://sumo.dlr.de/xsd/routes_file.xsd">
    <person id="0" depart="0.00" type="pedType1">
        <walk from="86414059#0" to="-155546685"/>
    </person>
    <person id="1" depart="0.00" type="pedType1">
        <walk from="30247195#1" to="-4662541#2"/>
    </person>
    <person id="2" depart="0.00" type="pedType1">
        <walk from="371746586#10" to="-242358064#0"/>
    </person>
</routes>
