<?xml version="1.0" encoding="UTF-8"?>

<!-- generated on 2021-05-20 15:15:33 by Eclipse SUMO duarouter Version 1.9.2
<configuration xmlns:xsi="http://www.w3.org/2001/XMLSchema-instance" xsi:noNamespaceSchemaLocation="http://sumo.dlr.de/xsd/duarouterConfiguration.xsd">

    <input>
        <net-file value="munich.net.xml"/>
        <additional-files value="trip_custom.xml"/>
        <route-files value="munich.trips.xml"/>
    </input>

    <output>
        <output-file value="munich.rou.xml"/>
        <alternatives-output value="munich.rou.alt.xml"/>
    </output>

    <processing>
        <remove-loops value="true"/>
    </processing>

    <time>
        <begin value="0"/>
        <end value="100"/>
    </time>

    <report>
        <verbose value="true"/>
        <ignore-errors value="true"/>
        <no-step-log value="true"/>
    </report>

</configuration>
-->

<routes xmlns:xsi="http://www.w3.org/2001/XMLSchema-instance" xsi:noNamespaceSchemaLocation="http://sumo.dlr.de/xsd/routes_file.xsd">
    <vType id="pedType1" maxSpeed="1.40" speedFactor="normc(1.00,0.19,0.14,1.43)"/>
    <person id="0" type="pedType1" depart="0.00">
        <walk edges="-155548876  -155546685"/>
    </person>
    <!--
    <person id="1" type="pedType1" depart="0.00">
        <walk edges="24039836#4 24039836#5 24039836#6"/>
    </person>
    -->
    <person id="2" type="pedType1" depart="0.00">
        <walk edges="155546685 155548876"/>
    </person>
</routes>
