<?xml version="1.0" encoding="UTF-8"?>
<!-- generated on 2021-05-20 15:15:31.556581 by $Id$ v1_9_2+0000-4206cfae24
  options: <doubleminus>configuration-file cfg.xml
-->
<routes xmlns:xsi="http://www.w3.org/2001/XMLSchema-instance" xsi:noNamespaceSchemaLocation="http://sumo.dlr.de/xsd/routes_file.xsd">
    <person id="0" depart="0.00" type="pedType1">
        <walk from="101325855#1" to="-54293422#3"/>
    </person>
    <person id="1" depart="0.50" type="pedType1">
        <walk from="-53377332#0" to="242993944"/>
    </person>
    <person id="2" depart="1.00" type="pedType1">
        <walk from="334481714" to="258747558#0"/>
    </person>
    <person id="3" depart="1.50" type="pedType1">
        <walk from="-5348232#15" to="29279743#6"/>
    </person>
    <person id="4" depart="2.00" type="pedType1">
        <walk from="449741686" to="-11798844#4"/>
    </person>
    <person id="5" depart="2.50" type="pedType1">
        <walk from="-23201470#2" to="-71360468#3"/>
    </person>
    <person id="6" depart="3.00" type="pedType1">
        <walk from="-274367493#1" to="106926625#0"/>
    </person>
    <person id="7" depart="3.50" type="pedType1">
        <walk from="332176208#1" to="306396737#1"/>
    </person>
    <person id="8" depart="4.00" type="pedType1">
        <walk from="-642729881" to="-151866164#6"/>
    </person>
    <person id="9" depart="4.50" type="pedType1">
        <walk from="-505114063#3" to="776733533#1"/>
    </person>
    <person id="10" depart="5.00" type="pedType1">
        <walk from="-93066994#2" to="-83028196#2"/>
    </person>
    <person id="11" depart="5.50" type="pedType1">
        <walk from="286179732#4" to="53530907#6"/>
    </person>
    <person id="12" depart="6.00" type="pedType1">
        <walk from="-29279743#12" to="312639527#0"/>
    </person>
    <person id="13" depart="6.50" type="pedType1">
        <walk from="-121899543#16" to="377796593#16"/>
    </person>
    <person id="14" depart="7.00" type="pedType1">
        <walk from="355529811" to="255435212#1"/>
    </person>
    <person id="15" depart="7.50" type="pedType1">
        <walk from="505114080#1" to="-915131892"/>
    </person>
    <person id="16" depart="8.00" type="pedType1">
        <walk from="600867967#1" to="502195229"/>
    </person>
    <person id="17" depart="8.50" type="pedType1">
        <walk from="-101220849#1" to="124701368#1"/>
    </person>
    <person id="18" depart="9.00" type="pedType1">
        <walk from="506111201#1" to="456746079"/>
    </person>
    <person id="19" depart="9.50" type="pedType1">
        <walk from="505939980" to="802819970"/>
    </person>
    <person id="20" depart="10.00" type="pedType1">
        <walk from="224088743#3" to="258783969"/>
    </person>
    <person id="21" depart="10.50" type="pedType1">
        <walk from="16786179#9" to="-505527590#7"/>
    </person>
    <person id="22" depart="11.00" type="pedType1">
        <walk from="257633891#0" to="378298802#5"/>
    </person>
    <person id="23" depart="11.50" type="pedType1">
        <walk from="-761199743#0" to="352253631#7"/>
    </person>
    <person id="24" depart="12.00" type="pedType1">
        <walk from="-51508352#2" to="-34130309#1"/>
    </person>
    <person id="25" depart="12.50" type="pedType1">
        <walk from="205612298#0" to="16786179#8"/>
    </person>
    <person id="26" depart="13.00" type="pedType1">
        <walk from="265937215#1" to="377621491#1"/>
    </person>
    <person id="27" depart="13.50" type="pedType1">
        <walk from="258747521" to="38626587#4"/>
    </person>
    <person id="28" depart="14.00" type="pedType1">
        <walk from="-38862724#1" to="851153414#0"/>
    </person>
    <person id="29" depart="14.50" type="pedType1">
        <walk from="300326719#1" to="352894103#12"/>
    </person>
    <person id="30" depart="15.00" type="pedType1">
        <walk from="-7390561#1" to="-30816922#4"/>
    </person>
    <person id="31" depart="15.50" type="pedType1">
        <walk from="533368691#1" to="-83028195#3"/>
    </person>
    <person id="32" depart="16.00" type="pedType1">
        <walk from="346040147#0" to="74873670"/>
    </person>
    <person id="33" depart="16.50" type="pedType1">
        <walk from="100024679#2" to="305412040"/>
    </person>
    <person id="34" depart="17.00" type="pedType1">
        <walk from="377621485" to="-481368863"/>
    </person>
    <person id="35" depart="17.50" type="pedType1">
        <walk from="176728945#2" to="-121899539#7"/>
    </person>
    <person id="36" depart="18.00" type="pedType1">
        <walk from="457179306#0" to="281929132"/>
    </person>
    <person id="37" depart="18.50" type="pedType1">
        <walk from="127677139#0" to="717957944#1"/>
    </person>
    <person id="38" depart="19.00" type="pedType1">
        <walk from="4427877#2" to="484341309#0"/>
    </person>
    <person id="39" depart="19.50" type="pedType1">
        <walk from="449741700#1" to="-93192037#4"/>
    </person>
    <person id="40" depart="20.00" type="pedType1">
        <walk from="-53725478#3" to="450252890#6"/>
    </person>
    <person id="41" depart="20.50" type="pedType1">
        <walk from="215189597#1" to="121899539#1"/>
    </person>
    <person id="42" depart="21.00" type="pedType1">
        <walk from="86414070#3" to="107702678#0"/>
    </person>
    <person id="43" depart="21.50" type="pedType1">
        <walk from="851166561#5" to="-93072396#4"/>
    </person>
    <person id="44" depart="22.00" type="pedType1">
        <walk from="305889811#6" to="244505554#0"/>
    </person>
    <person id="45" depart="22.50" type="pedType1">
        <walk from="-108127809#0" to="693718991#1"/>
    </person>
    <person id="46" depart="23.00" type="pedType1">
        <walk from="149789269#3" to="-186553873#0"/>
    </person>
    <person id="47" depart="23.50" type="pedType1">
        <walk from="346311427#3" to="127478198"/>
    </person>
    <person id="48" depart="24.00" type="pedType1">
        <walk from="15805471#4" to="118184262#2"/>
    </person>
    <person id="49" depart="24.50" type="pedType1">
        <walk from="17960131#0" to="279444893"/>
    </person>
    <person id="50" depart="25.00" type="pedType1">
        <walk from="338649281#1" to="218848676#11"/>
    </person>
    <person id="51" depart="25.50" type="pedType1">
        <walk from="-851113023#5" to="469691168"/>
    </person>
    <person id="52" depart="26.00" type="pedType1">
        <walk from="300326719#7" to="81550335#5"/>
    </person>
    <person id="53" depart="26.50" type="pedType1">
        <walk from="224088738" to="-88894451#1"/>
    </person>
    <person id="54" depart="27.00" type="pedType1">
        <walk from="-227222856" to="113849535#6"/>
    </person>
    <person id="55" depart="27.50" type="pedType1">
        <walk from="100024666#2" to="12373489#1"/>
    </person>
    <person id="56" depart="28.00" type="pedType1">
        <walk from="-5348232#16" to="-5344608#1"/>
    </person>
    <person id="57" depart="28.50" type="pedType1">
        <walk from="39322009#11" to="155586944#0"/>
    </person>
    <person id="58" depart="29.00" type="pedType1">
        <walk from="-4071766#2" to="306097064#1"/>
    </person>
    <person id="59" depart="29.50" type="pedType1">
        <walk from="38626587#3" to="-300933267#1"/>
    </person>
    <person id="60" depart="30.00" type="pedType1">
        <walk from="361035575#0" to="312549780"/>
    </person>
    <person id="61" depart="30.50" type="pedType1">
        <walk from="378298812#3" to="86414059#6"/>
    </person>
    <person id="62" depart="31.00" type="pedType1">
        <walk from="456090781" to="-242860952"/>
    </person>
    <person id="63" depart="31.50" type="pedType1">
        <walk from="155546692" to="-147478648#3"/>
    </person>
    <person id="64" depart="32.00" type="pedType1">
        <walk from="475109927#0" to="-450252894#2"/>
    </person>
    <person id="65" depart="32.50" type="pedType1">
        <walk from="131494227" to="51317617"/>
    </person>
    <person id="66" depart="33.00" type="pedType1">
        <walk from="-851153415" to="-309806476"/>
    </person>
    <person id="67" depart="33.50" type="pedType1">
        <walk from="-4649342#1" to="-307413368#0"/>
    </person>
    <person id="68" depart="34.00" type="pedType1">
        <walk from="112291210#2" to="-274151220"/>
    </person>
    <person id="69" depart="34.50" type="pedType1">
        <walk from="505114001" to="27822839#1"/>
    </person>
    <person id="70" depart="35.00" type="pedType1">
        <walk from="-4519926#1" to="-157106406#1"/>
    </person>
    <person id="71" depart="35.50" type="pedType1">
        <walk from="768442404#1" to="22690582#2"/>
    </person>
    <person id="72" depart="36.00" type="pedType1">
        <walk from="96755357#0" to="-306097065"/>
    </person>
    <person id="73" depart="36.50" type="pedType1">
        <walk from="378298925#14" to="80737020#4"/>
    </person>
    <person id="74" depart="37.00" type="pedType1">
        <walk from="-491295714#1" to="-505114074#0"/>
    </person>
    <person id="75" depart="37.50" type="pedType1">
        <walk from="343277917#5" to="-38626612#8"/>
    </person>
    <person id="76" depart="38.00" type="pedType1">
        <walk from="344664988#1" to="725976302#4"/>
    </person>
    <person id="77" depart="38.50" type="pedType1">
        <walk from="172709302#0" to="258747553"/>
    </person>
    <person id="78" depart="39.00" type="pedType1">
        <walk from="455324722" to="-192123865#8"/>
    </person>
    <person id="79" depart="39.50" type="pedType1">
        <walk from="38626612#8" to="27417491#1"/>
    </person>
    <person id="80" depart="40.00" type="pedType1">
        <walk from="35869619#1" to="367241954#0"/>
    </person>
    <person id="81" depart="40.50" type="pedType1">
        <walk from="-155055228#2" to="17961457#1"/>
    </person>
    <person id="82" depart="41.00" type="pedType1">
        <walk from="-24998128#0" to="851166559#4"/>
    </person>
    <person id="83" depart="41.50" type="pedType1">
        <walk from="219556899#1" to="33487034#8"/>
    </person>
    <person id="84" depart="42.00" type="pedType1">
        <walk from="286179739#1" to="317892956"/>
    </person>
    <person id="85" depart="42.50" type="pedType1">
        <walk from="236038533#0" to="-24952793#2"/>
    </person>
    <person id="86" depart="43.00" type="pedType1">
        <walk from="450135129#1" to="258783974"/>
    </person>
    <person id="87" depart="43.50" type="pedType1">
        <walk from="93320850#2" to="34140426#2"/>
    </person>
    <person id="88" depart="44.00" type="pedType1">
        <walk from="-31097004#0" to="88563201#0"/>
    </person>
    <person id="89" depart="44.50" type="pedType1">
        <walk from="-392069505" to="258783985"/>
    </person>
    <person id="90" depart="45.00" type="pedType1">
        <walk from="258784008#1" to="-254470578"/>
    </person>
    <person id="91" depart="45.50" type="pedType1">
        <walk from="112071295#7" to="119051972#1"/>
    </person>
    <person id="92" depart="46.00" type="pedType1">
        <walk from="338660655" to="-383345586#0"/>
    </person>
    <person id="93" depart="46.50" type="pedType1">
        <walk from="155603766#3" to="123106302#1"/>
    </person>
    <person id="94" depart="47.00" type="pedType1">
        <walk from="363159783" to="552799309"/>
    </person>
    <person id="95" depart="47.50" type="pedType1">
        <walk from="-86414059#6" to="-86414070#4"/>
    </person>
    <person id="96" depart="48.00" type="pedType1">
        <walk from="-157093963#1" to="305889814"/>
    </person>
    <person id="97" depart="48.50" type="pedType1">
        <walk from="323966450#1" to="308731072#1"/>
    </person>
    <person id="98" depart="49.00" type="pedType1">
        <walk from="331965616#0" to="122159103"/>
    </person>
    <person id="99" depart="49.50" type="pedType1">
        <walk from="190356098#0" to="279439387"/>
    </person>
    <person id="100" depart="50.00" type="pedType1">
        <walk from="352280465#0" to="286179732#4"/>
    </person>
    <person id="101" depart="50.50" type="pedType1">
        <walk from="121542795#1" to="236120020#0"/>
    </person>
    <person id="102" depart="51.00" type="pedType1">
        <walk from="37856496#0" to="-383345586#2"/>
    </person>
    <person id="103" depart="51.50" type="pedType1">
        <walk from="161652311#11" to="-273936879#1"/>
    </person>
    <person id="104" depart="52.00" type="pedType1">
        <walk from="235912727#3" to="159091642"/>
    </person>
    <person id="105" depart="52.50" type="pedType1">
        <walk from="826819759" to="-152118096#1"/>
    </person>
    <person id="106" depart="53.00" type="pedType1">
        <walk from="-459027206#3" to="-312639527#1"/>
    </person>
    <person id="107" depart="53.50" type="pedType1">
        <walk from="423191019#0" to="-814622312"/>
    </person>
    <person id="108" depart="54.00" type="pedType1">
        <walk from="49798615#3" to="127009619"/>
    </person>
    <person id="109" depart="54.50" type="pedType1">
        <walk from="-376107908#4" to="53861566"/>
    </person>
    <person id="110" depart="55.00" type="pedType1">
        <walk from="-851139057#1" to="-429572837#2"/>
    </person>
    <person id="111" depart="55.50" type="pedType1">
        <walk from="416447051#1" to="244549197#2"/>
    </person>
    <person id="112" depart="56.00" type="pedType1">
        <walk from="-289819993#2" to="24262560"/>
    </person>
    <person id="113" depart="56.50" type="pedType1">
        <walk from="421324242" to="490343573#0"/>
    </person>
    <person id="114" depart="57.00" type="pedType1">
        <walk from="-23546005#10" to="306253127"/>
    </person>
    <person id="115" depart="57.50" type="pedType1">
        <walk from="33487034#11" to="404695149"/>
    </person>
    <person id="116" depart="58.00" type="pedType1">
        <walk from="161766362#5" to="-26632542#1"/>
    </person>
    <person id="117" depart="58.50" type="pedType1">
        <walk from="127478190#0" to="-312639529#0"/>
    </person>
    <person id="118" depart="59.00" type="pedType1">
        <walk from="129832685#6" to="-117849719#6"/>
    </person>
    <person id="119" depart="59.50" type="pedType1">
        <walk from="-24246421#0" to="-157188168#0"/>
    </person>
    <person id="120" depart="60.00" type="pedType1">
        <walk from="-38862724#1" to="30816922#1"/>
    </person>
    <person id="121" depart="60.50" type="pedType1">
        <walk from="193104749#1" to="100044467"/>
    </person>
    <person id="122" depart="61.00" type="pedType1">
        <walk from="157093966#1" to="300933267#9"/>
    </person>
    <person id="123" depart="61.50" type="pedType1">
        <walk from="-155708177#3" to="-125009454#1"/>
    </person>
    <person id="124" depart="62.00" type="pedType1">
        <walk from="157093971#0" to="122270635#1"/>
    </person>
    <person id="125" depart="62.50" type="pedType1">
        <walk from="-4075783#2" to="244452881"/>
    </person>
    <person id="126" depart="63.00" type="pedType1">
        <walk from="450222404" to="-745185489#1"/>
    </person>
    <person id="127" depart="63.50" type="pedType1">
        <walk from="40945107#0" to="23856918"/>
    </person>
    <person id="128" depart="64.00" type="pedType1">
        <walk from="-158901369#3" to="244282621#1"/>
    </person>
    <person id="129" depart="64.50" type="pedType1">
        <walk from="24407221#1" to="217618262#1"/>
    </person>
    <person id="130" depart="65.00" type="pedType1">
        <walk from="5346622#0" to="19683797#0"/>
    </person>
    <person id="131" depart="65.50" type="pedType1">
        <walk from="242729944#1" to="-425026700"/>
    </person>
    <person id="132" depart="66.00" type="pedType1">
        <walk from="-392069507#1" to="154470146#3"/>
    </person>
    <person id="133" depart="66.50" type="pedType1">
        <walk from="352895425#15" to="113849533#5"/>
    </person>
    <person id="134" depart="67.00" type="pedType1">
        <walk from="559194511" to="505114027#0"/>
    </person>
    <person id="135" depart="67.50" type="pedType1">
        <walk from="128539928#1" to="281931843"/>
    </person>
    <person id="136" depart="68.00" type="pedType1">
        <walk from="745185489#1" to="122159111#1"/>
    </person>
    <person id="137" depart="68.50" type="pedType1">
        <walk from="155041002#4" to="43040876"/>
    </person>
    <person id="138" depart="69.00" type="pedType1">
        <walk from="331965613" to="168045899#1"/>
    </person>
    <person id="139" depart="69.50" type="pedType1">
        <walk from="-449741707" to="-51508352#12"/>
    </person>
    <person id="140" depart="70.00" type="pedType1">
        <walk from="80737021#1" to="23201317#4"/>
    </person>
    <person id="141" depart="70.50" type="pedType1">
        <walk from="-27807185#10" to="4056082#1"/>
    </person>
    <person id="142" depart="71.00" type="pedType1">
        <walk from="-155039623#3" to="129249214"/>
    </person>
    <person id="143" depart="71.50" type="pedType1">
        <walk from="186287089" to="159542742#2"/>
    </person>
    <person id="144" depart="72.00" type="pedType1">
        <walk from="38626612#2" to="19683540"/>
    </person>
    <person id="145" depart="72.50" type="pedType1">
        <walk from="254469412" to="122159111#0"/>
    </person>
    <person id="146" depart="73.00" type="pedType1">
        <walk from="449695333" to="219433524#2"/>
    </person>
    <person id="147" depart="73.50" type="pedType1">
        <walk from="393414630#7" to="100024925#1"/>
    </person>
    <person id="148" depart="74.00" type="pedType1">
        <walk from="455843463" to="364376873"/>
    </person>
    <person id="149" depart="74.50" type="pedType1">
        <walk from="19683505" to="-115597000#3"/>
    </person>
    <person id="150" depart="75.00" type="pedType1">
        <walk from="-802819970" to="-365762132#1"/>
    </person>
    <person id="151" depart="75.50" type="pedType1">
        <walk from="178117119#1" to="307419997#4"/>
    </person>
    <person id="152" depart="76.00" type="pedType1">
        <walk from="258777069" to="450135129#1"/>
    </person>
    <person id="153" depart="76.50" type="pedType1">
        <walk from="218848675#7" to="364097598#2"/>
    </person>
    <person id="154" depart="77.00" type="pedType1">
        <walk from="-157028961#3" to="-479868077#0"/>
    </person>
    <person id="155" depart="77.50" type="pedType1">
        <walk from="258747529" to="-86414055"/>
    </person>
    <person id="156" depart="78.00" type="pedType1">
        <walk from="391288833#5" to="-4645397#0"/>
    </person>
    <person id="157" depart="78.50" type="pedType1">
        <walk from="172840519" to="359267143"/>
    </person>
    <person id="158" depart="79.00" type="pedType1">
        <walk from="352895425#9" to="83028195#6"/>
    </person>
    <person id="159" depart="79.50" type="pedType1">
        <walk from="352895425#4" to="81270237#0"/>
    </person>
    <person id="160" depart="80.00" type="pedType1">
        <walk from="154470138#1" to="393414630#6"/>
    </person>
    <person id="161" depart="80.50" type="pedType1">
        <walk from="27807194#4" to="250329215"/>
    </person>
    <person id="162" depart="81.00" type="pedType1">
        <walk from="378298851" to="240394032#1"/>
    </person>
    <person id="163" depart="81.50" type="pedType1">
        <walk from="157028974" to="273829412#0"/>
    </person>
    <person id="164" depart="82.00" type="pedType1">
        <walk from="-89840548#1" to="-89699186#5"/>
    </person>
    <person id="165" depart="82.50" type="pedType1">
        <walk from="236038530#0" to="-313577317"/>
    </person>
    <person id="166" depart="83.00" type="pedType1">
        <walk from="4662545#4" to="12373489#0"/>
    </person>
    <person id="167" depart="83.50" type="pedType1">
        <walk from="135588108#0" to="-16786179#9"/>
    </person>
    <person id="168" depart="84.00" type="pedType1">
        <walk from="-377796593#53" to="-401962771"/>
    </person>
    <person id="169" depart="84.50" type="pedType1">
        <walk from="134941607#2" to="766716383"/>
    </person>
    <person id="170" depart="85.00" type="pedType1">
        <walk from="5344067" to="4662591#3"/>
    </person>
    <person id="171" depart="85.50" type="pedType1">
        <walk from="305412059" to="4649455#2"/>
    </person>
    <person id="172" depart="86.00" type="pedType1">
        <walk from="23082544#2" to="444996325#1"/>
    </person>
    <person id="173" depart="86.50" type="pedType1">
        <walk from="89699186#4" to="-33487034#9"/>
    </person>
    <person id="174" depart="87.00" type="pedType1">
        <walk from="152543150#0" to="273829412#0"/>
    </person>
    <person id="175" depart="87.50" type="pedType1">
        <walk from="80177355#0" to="24327359"/>
    </person>
    <person id="176" depart="88.00" type="pedType1">
        <walk from="23885024#7" to="51476080#4"/>
    </person>
    <person id="177" depart="88.50" type="pedType1">
        <walk from="27506384#0" to="-4651574#3"/>
    </person>
    <person id="178" depart="89.00" type="pedType1">
        <walk from="242729941#1" to="39380966#0"/>
    </person>
    <person id="179" depart="89.50" type="pedType1">
        <walk from="108127809#1" to="93753184#5"/>
    </person>
    <person id="180" depart="90.00" type="pedType1">
        <walk from="433685550#0" to="129832685#13"/>
    </person>
    <person id="181" depart="90.50" type="pedType1">
        <walk from="-35599696" to="128329239"/>
    </person>
    <person id="182" depart="91.00" type="pedType1">
        <walk from="12899133#1" to="455348992#1"/>
    </person>
    <person id="183" depart="91.50" type="pedType1">
        <walk from="35869613" to="-143558110#3"/>
    </person>
    <person id="184" depart="92.00" type="pedType1">
        <walk from="421310223#0" to="414734022"/>
    </person>
    <person id="185" depart="92.50" type="pedType1">
        <walk from="378298858" to="-165280290#3"/>
    </person>
    <person id="186" depart="93.00" type="pedType1">
        <walk from="-35834770#1" to="-490386701#2"/>
    </person>
    <person id="187" depart="93.50" type="pedType1">
        <walk from="-4262221#0" to="600867964#0"/>
    </person>
    <person id="188" depart="94.00" type="pedType1">
        <walk from="134034991#1" to="142786391#1"/>
    </person>
    <person id="189" depart="94.50" type="pedType1">
        <walk from="307181560" to="-4649336#3"/>
    </person>
    <person id="190" depart="95.00" type="pedType1">
        <walk from="-5786725#1" to="884089739#1"/>
    </person>
    <person id="191" depart="95.50" type="pedType1">
        <walk from="11846346#0" to="114189674#3"/>
    </person>
    <person id="192" depart="96.00" type="pedType1">
        <walk from="725976302#4" to="433685583"/>
    </person>
    <person id="193" depart="96.50" type="pedType1">
        <walk from="352894104#2" to="155603766#17"/>
    </person>
    <person id="194" depart="97.00" type="pedType1">
        <walk from="307420006" to="289819993#2"/>
    </person>
    <person id="195" depart="97.50" type="pedType1">
        <walk from="-80737021#1" to="352272289"/>
    </person>
    <person id="196" depart="98.00" type="pedType1">
        <walk from="377612372" to="-274151220"/>
    </person>
    <person id="197" depart="98.50" type="pedType1">
        <walk from="158901369#8" to="737289076"/>
    </person>
    <person id="198" depart="99.00" type="pedType1">
        <walk from="506111190" to="22690577#2"/>
    </person>
    <person id="199" depart="99.50" type="pedType1">
        <walk from="27822839#10" to="254667754"/>
    </person>
</routes>
