<?xml version="1.0" encoding="UTF-8"?>

<!-- generated on 2021-07-15 11:47:11 by Eclipse SUMO duarouter Version 1.9.2
<configuration xmlns:xsi="http://www.w3.org/2001/XMLSchema-instance" xsi:noNamespaceSchemaLocation="http://sumo.dlr.de/xsd/duarouterConfiguration.xsd">

    <input>
        <net-file value="../munich.net.xml"/>
        <additional-files value="trip_custom.xml"/>
        <route-files value="munich_ped120.trips.xml"/>
    </input>

    <output>
        <output-file value="munich_ped120.rou.xml"/>
        <alternatives-output value="munich_ped120.rou.alt.xml"/>
    </output>

    <processing>
        <remove-loops value="true"/>
    </processing>

    <time>
        <begin value="0"/>
        <end value="30"/>
    </time>

    <report>
        <verbose value="true"/>
        <ignore-errors value="true"/>
        <no-step-log value="true"/>
    </report>

</configuration>
-->

<routes xmlns:xsi="http://www.w3.org/2001/XMLSchema-instance" xsi:noNamespaceSchemaLocation="http://sumo.dlr.de/xsd/routes_file.xsd">
    <vType id="pedType1" maxSpeed="1.40" speedFactor="normc(1.00,0.19,0.14,1.43)"/>
    <person id="0" type="pedType1" depart="0.00">
        <walk edges="101325855#1 101325855#2 86969970#0 -725976304 -310707184#0 -310707184#2 113849548#0 725976302#7 725976302#8 725976302#9 725976306 27222781#1 27222779#1 173245155#2 173245155#1 51476081#2 51476081#3 51476081#4 -316079862 51476086#2 22690577#2 22690577#1 22690577#0 -149789269#3 -149789269#4 -317798564#2 180313803#4 -149789269#7 344664988#0 -54293422#3"/>
    </person>
    <person id="1" type="pedType1" depart="0.25">
        <walk edges="-53377332#0 -53377332#1 -147478150 86414059#4 -86414059#3 86414059#2 86414059#1 -86414059#0 -154782352#2 -154782352#1 154782352#0 154782356#0 154782356#1 86414071 -86414064 158399802#2 -242993944 242993944"/>
    </person>
    <person id="2" type="pedType1" depart="0.50">
        <walk edges="334481714 -7386776#4 -7386776#2 315224433#0 127977585 -33487026#0 371746586#0 371746586#1 371746586#2 371746586#3 533368697#1 265278402#4 258747528#6 258747528#5 258747528#4 258747528#3 258747528#2 258747528#1 258747528#0 105289322 258139196 105289324#0 105289324#1 258747552 346040140 105289323#3 105289323#2 105289323#1 258747536 258747549 258747558#0"/>
    </person>
    <person id="3" type="pedType1" depart="0.75">
        <walk edges="-5348232#15 -5348232#16 -190356098#1 -190356098#0 -851133450 -181922320#1 -181922320#0 29279743#0 29279743#1 -29279743#5 29279743#6"/>
    </person>
    <person id="4" type="pedType1" depart="1.00">
        <walk edges="449741686 449741712 449741715 -449741724#0 -449741724#1 -93192044#2 -113619165#0 -113619165#1 23738101 -33487034#11 33487034#10 -33487034#9 -110962616 13492207 13491180 13855569#2 37809624#0 37809624#1 37809624#2 -235912727#2 -235912727#1 -235912727#0 -10436938#3 -10436938#2 -10436938#1 10436938#0 -10436937 -332184121#5 332184121#2 4417016#1 142457683#0 142457683#1 142457683#2 142457683#3 142457683#4 142457682#1 4417016#3 431528627#0 431528627#2 35869623#1 35869623#0 35869622 35869620#0 35869620#1 873230278#0 12693859#2 12693859#3 -11798844#4"/>
    </person>
    <person id="5" type="pedType1" depart="1.25">
        <walk edges="-23201470#2 23201470#1 23201470#0 -86414059#0 -154782352#2 -154782352#1 154782352#0 154782356#0 154782356#1 86414071 -86414064 -86414058 618310626 251805203#0 252700830#0 252700829 -33487028#4 -33487028#3 33487028#2 -33487028#1 371746586#6 371746586#7 371746586#8 371746586#9 371746586#10 -71360468#2 -71360468#3"/>
    </person>
    <person id="6" type="pedType1" depart="1.50">
        <walk edges="-274367493#1 274367492 -8286442#3 -8286442#4 273923209#2 -273936882#4 -273936882#3 273936882#2 -273936882#1 166123299#2 -166123299#0 450252890#6 457179307#2 446307727#1 457179307#0 446307725#1 446307725#0 106926625#4 106926625#3 106926625#2 106926625#1 106926625#0"/>
    </person>
    <person id="7" type="pedType1" depart="1.75">
        <walk edges="332176208#1 371746586#5 -157964859#0 33487027 371076643#1 -80737020#2 306396736#0 -80737022#3 80737022#1 80737022#0 300326719#12 300326719#10 300326719#9 -300326719#7 -306097062#0 306396737#1"/>
    </person>
    <person id="8" type="pedType1" depart="2.00">
        <walk edges="-642729881 123959573#5 -39322228#1 -310719822#0 -151866164#6"/>
    </person>
    <person id="9" type="pedType1" depart="2.25">
        <walk edges="-505114063#3 505114063#2 505114063#1 -253984991#0 253984991#1 -505114029#2 -310719822#0 -30616063#1 -30616063#2 -30616063#3 -851139057#1 24407221#4 24407221#1 128539958#1 -155603766#16 128539928#1 155603766#19 128539950#0 155055229#1 155055229#0 351426187#2 776733533#0 776733533#1"/>
    </person>
    <person id="10" type="pedType1" depart="2.50">
        <walk edges="-93066994#2 -154575776#7 -154575776#5 -154575776#4 -154575776#3 154575776#2 155603789#6 155603782#1 317934876#0 540351562#1 365057331#0 365057331#1 365057330#1 4649342#8 4649342#10 -83028196#2"/>
    </person>
    <person id="11" type="pedType1" depart="2.75">
        <walk edges="286179732#4 338046835 -338046834 -124559504#9 -124559504#10 -124559504#11 -124559511 -58561800#0 -149935566#2 -149935566#1 -149935566#0 -51508352#0 31095496#0 31095496#1 695667206#0 695667206#1 695667206#2 695667206#3 134929400#2 134929400#3 -4262211#1 -4262211#2 -4262211#4 53530907#6"/>
    </person>
    <person id="12" type="pedType1" depart="3.00">
        <walk edges="-29279743#12 -29279743#13 -38868688#0 -38868688#1 -328027165#0 -328027165#1 38868690#1 -505114029#1 -505114029#2 -38868689#1 272438846#5 161766362#1 -161766362#2 -161766362#5 161766362#8 -24998128#0 -312549780 -392103885#3 -35834770#0 35834770#1 35834770#2 -35834771#1 423191011 -312639527#0 312639527#0"/>
    </person>
    <person id="13" type="pedType1" depart="3.25">
        <walk edges="-121899543#16 -121899543#15 367241955#0 367241955#1 147858386#4 -451790951#0 -451790951#1 451790951#2 -451790951#4 451790951#6 -451790951#8 -451790951#9 -451790951#10 451790951#11 156640182#1 156640185#2 156640185#1 -377796593#4 377796593#5 -377796593#6 -377796593#7 377796593#8 -377796593#9 -377796593#10 -377796593#11 -377796593#12 -377796593#13 -377796593#14 -377796593#15 377796593#16"/>
    </person>
    <person id="15" type="pedType1" depart="3.75">
        <walk edges="505114080#1 253984991#1 -505114029#2 -38868689#1 272438846#5 161766362#1 -161766362#2 -161766362#5 161766362#8 -24998128#0 -312549780 -4645396#4 -4645396#3 -4645396#2 4645396#0 -16786171#1 -16786171#2 -16786171#3 -16786171#4 -16786171#5 -490386700 186553873#0 -392103894#7 -392103894#6 -392103894#5 -392103894#4 -392103894#3 -392103894#2 -915131892"/>
    </person>
    <person id="16" type="pedType1" depart="4.00">
        <walk edges="600867967#1 600867964#1 600867964#2 353017404#2 353017404#3 353017404#4 -851113021#1 -851113023#5 -851113023#4 -851113023#1 -851113023#0 -4519931#0 -4519931#1 -4519931#3 -4519931#4 -4519931#7 -4519931#8 -4519931#9 -851166559#6 851166560#0 -4519927#7 502195229"/>
    </person>
    <person id="17" type="pedType1" depart="4.25">
        <walk edges="-101220849#1 -101220849#2 101220849#3 300559240#0 -300559237#7 -300559237#6 -165280261#3 300559237#3 300559237#1 -249275879#2 -249275879#1 -252724685 119699177#1 119699177#2 257633877 100024670 124701368#0 124701368#1"/>
    </person>
    <person id="18" type="pedType1" depart="4.50">
        <walk edges="506111201#1 506111201#0 722674006#1 -93192027#0 -93195854#0 -93195854#1 -93195854#2 -93195854#3 -93195854#4 93192035#0 93192035#1 50220178#2 456746079"/>
    </person>
    <person id="19" type="pedType1" depart="4.75">
        <walk edges="505939980 383345586#2 383345586#1 79182779 -383345587#0 -383345587#1 -681699053 -154782359#0 -154782359#1 -154782359#2 -93192037#0 -93192037#1 -93192037#2 -93192037#3 -93192037#4 -152468888#0 -152468888#1 -152468888#2 -152468888#3 -152468888#4 -152468888#5 493693636#0 254536152#2 254536152#1 34262561#0 -34262561#1 -34262561#2 4662545#6 4662544#0 4649472 158399779#2 802819970"/>
    </person>
    <person id="20" type="pedType1" depart="5.00">
        <walk edges="224088743#3 224088734#0 224088734#1 224088737 100024679#2 100024679#1 214785685#16 214785685#17 214785685#18 214785685#19 214785685#20 214785685#21 214785685#22 -4427964#0 -482117464 151263118#2 -151263118#0 365762133 135588108#1 93192024#0 50220178#3 50220178#2 -863370119#2 248003719 100024921#1 100024921#0 258783969"/>
    </person>
    <person id="21" type="pedType1" depart="5.25">
        <walk edges="16786179#9 -16786179#10 134929400#1 695667206#3 695667206#2 695667206#1 -695667212 119747970#0 31095496#3 309990231 309990229#1 309990229#0 376401312#5 309990227 122159095 122159109#3 122159109#4 122159103 352285613#0 352285611#1 205612300#3 205612298#0 376401316#2 376401316#1 205612298#2 205612298#3 205612298#4 205612298#5 205612298#6 205612298#7 392103893#1 205612298#10 205612298#11 -58807374#10 -58807374#4 -58807374#3 58807374#0 -505527590#0 505527590#1 -505527590#2 505527589 505527583 505527581 -505527590#7"/>
    </person>
    <person id="22" type="pedType1" depart="5.50">
        <walk edges="257633891#0 257633888 338669841#1 338669842#0 124701368#2 124701368#1 124701368#0 100024670 257633877 119699177#2 119699177#1 -157188167#1 123244286 -123244287 -157102852#1 -157102852#6 -157102852#7 -157102852#8 -157093962#12 -157093962#13 -157093962#14 -157093962#17 -157093962#18 -157188172#0 157188172#1 -4662590 4662591#3 80511923#0 210310284#0 332176200#0 193703019#0 193703018#0 378298913#14 378298913#13 378298913#12 378298913#11 378298913#10 258139193 258139199 258139185 258139190 378298903 378298802#3 378298802#4 378298802#5"/>
    </person>
    <person id="23" type="pedType1" depart="5.75">
        <walk edges="-761199743#0 4649342#1 80239245#2 -310729848#0 -83028195#6 33126943#3 352253631#5 352253631#6 352253631#7"/>
    </person>
    <person id="24" type="pedType1" depart="6.00">
        <walk edges="-51508352#2 -51508352#3 -392088974#1 392069508#2 352280457#6 352280464#0 352280464#1 352280464#2 -53530907#7 -34130309#1"/>
    </person>
    <person id="25" type="pedType1" depart="6.25">
        <walk edges="205612298#0 205612300#3 352285611#1 352285613#0 122159103 122159109#4 122159109#3 122159095 309990227 376401312#5 309990229#0 309990229#1 309990231 31095496#3 119747970#0 695667212 695667206#1 695667206#2 695667206#3 134929400#1 -16786179#10 -16786179#9 16786179#8"/>
    </person>
    <person id="26" type="pedType1" depart="6.50">
        <walk edges="265937215#1 88563201#1 -88563201#0 88563202#1 -93195132#0 93195132#1 93195132#2 93195132#3 86969970#0 -725976304 -310707184#0 -310707184#2 113849535#19 113849535#18 113849535#17 49800591#2 -49800591#3 -313577316 113849539#2 113849539#3 313577318#2 113849535#11 113849535#10 113849535#9 219433522#1 219432270 219433519 290819343#0 331961524#0 308731068#3 377621492 377621493 377621489#1 377621491#1"/>
    </person>
    <person id="27" type="pedType1" depart="6.75">
        <walk edges="258747521 258747532 378298801 258747523 378298925#14 378298925#15 378298925#16 258139199 378298925#4 378298925#3 378298925#2 378298925#1 378298849 378298913#14 193703018#0 193703019#0 332176203 -533368697#1 371746586#3 371746586#2 371746586#1 371746586#0 -33487026#1 33487026#3 38626592#3 -38626587#1 -38626587#2 -38626587#3 38626587#4"/>
    </person>
    <person id="28" type="pedType1" depart="7.00">
        <walk edges="-38862724#1 5343763#1 5343763#2 5343763#3 161970160#0 23960591#2 23960591#1 23960591#0 5342789#1 -39380980#3 -39380980#2 -39380980#1 -39380980#0 -4651573#3 -851153415 851153414#0"/>
    </person>
    <person id="29" type="pedType1" depart="7.25">
        <walk edges="300326719#1 -53267457#1 53267457#0 4649342#10 4649342#8 365057330#1 365057331#1 365057331#0 540351562#1 317934876#0 155603782#1 155603789#6 154575776#2 -154575776#3 -154575776#4 -154575776#5 -154575776#7 38906714#1 851115543#0 -851115543#1 352894103#12"/>
    </person>
    <person id="30" type="pedType1" depart="7.50">
        <walk edges="-7390561#1 7390561#1 7390561#0 -206863693#11 -38321273#0 -38321273#1 27807193#1 51778899#3 51778899#2 51778899#1 51778899#0 -123106263#1 123106279#10 96246038#3 123106287 96246039#1 96246039#2 96246039#3 96246039#4 123106279#3 123106279#4 710645805#0 710645805#1 96246041#1 161970159#1 161970160#0 26416346#1 -30816922#4"/>
    </person>
    <person id="31" type="pedType1" depart="7.75">
        <walk edges="533368691#1 365057331#1 365057331#0 540351562#1 831762506#1 100321826#0 100321826#1 100321826#2 30816863#1 30816863#0 -93072396#0 -93072396#1 -93072396#3 93072396#4 352253631#1 352253631#2 352253631#3 352253631#4 33126943#3 -83028195#6 -83028195#3"/>
    </person>
    <person id="32" type="pedType1" depart="8.00">
        <walk edges="346040147#0 346040142 258747531 346040148#2 258747554 258139176 258139200#0 -157964859#0 33487027 371076643#1 -80737020#2 306396736#0 -80737022#3 80737022#1 80737022#0 -157106404 -157106405#4 -157106405#3 74873671#0 74873670"/>
    </person>
    <person id="33" type="pedType1" depart="8.25">
        <walk edges="100024679#2 224088737 224088734#1 224088734#0 224088743#3 382286088 224088710 258777080#0 258777080#1 214785685#10 214785685#9 -60363514 392072302#2 151542344#1 151542344#2 214785685#3 214785685#2 258139194#1 100024668 258139186 258139189 346040148#3 258747554 258139176 258139200#0 -157964859#0 33487027 -4662588 38626594 157188172#4 -157188172#3 157188172#1 -157188172#0 157188170#7 -157188170#6 305412040"/>
    </person>
    <person id="34" type="pedType1" depart="8.50">
        <walk edges="377621485 377621488#1 308731068#2 308731068#3 331961524#0 290819343#1 308731062#0 219432268 219433525#0 219433525#1 219433524#2 113849539#8 -16786175#1 -16786179#1 -16786179#2 -16786179#4 -16786179#5 -16786179#7 -16786179#8 -16786179#9 -16786179#10 134929400#1 134929400#2 134929400#3 134929400#4 134929400#7 134929400#8 134929400#9 -392069504 -392069506#1 393414630#5 393414630#6 393414630#7 352280465#3 371543796#1 -89840558#2 -481368863"/>
    </person>
    <person id="35" type="pedType1" depart="8.75">
        <walk edges="176728945#2 127012713 26649467#1 -514543903#0 156640183#0 156640172#0 156640172#1 190098875#0 190098875#1 190098875#2 350638844 141226239#0 141226239#1 4662599#0 -121899538#3 -121899539#7"/>
    </person>
    <person id="36" type="pedType1" depart="9.00">
        <walk edges="457179306#0 4056082#6 -4056082#5 450252895#2 450252895#1 450252895#0 86924641 112292595#0 112292595#3 86924645 -4056082#2 -4056082#1 4056082#0 -190356098#1 -190356098#0 -851133450 -181922320#1 -181922320#0 29279743#0 29279743#1 -27807185#11 -27807185#10 27807185#6 27807185#3 -5348870 -23839315#0 281929132"/>
    </person>
    <person id="37" type="pedType1" depart="9.25">
        <walk edges="127677139#0 127478190#0 -155603766#3 127677133#0 127478187#0 127478187#1 127478192 128539952 -155603766#11 -155603766#14 128539958#1 -155603766#16 128539928#1 155603766#19 155603766#21 -155603766#22 -39322009#2 129832685#8 129832685#9 129832685#10 129832685#11 129832685#12 113849535#2 113849539#13 113849539#12 113849535#4 113849535#5 717957944#1"/>
    </person>
    <person id="39" type="pedType1" depart="9.75">
        <walk edges="449741700#1 -449741724#0 449741724#1 93192044#1 93192024#0 135588108#1 365762133 -151263118#0 151263118#2 -482117464 -4427964#0 214785685#22 214785685#21 214785685#20 4427507#3 -93192037#4"/>
    </person>
    <person id="40" type="pedType1" depart="10.00">
        <walk edges="-53725478#3 53725478#3 53725478#1 53725478#0 -181922320#1 -851133450 -190356098#0 -190356098#1 4056082#0 -4056082#1 4056082#2 86924645 112292595#3 112292595#0 86924641 450252895#0 450252895#1 450252895#2 -425026700 423222742#2 446307727#3 446307727#0 457179307#2 450252890#6"/>
    </person>
    <person id="41" type="pedType1" depart="10.25">
        <walk edges="215189597#1 36993740#1 -122891955#0 39085348#1 6134711#0 32736021#1 38057572#0 38057572#2 40321588#0 40321588#1 206851086 38057573#0 121899539#1"/>
    </person>
    <person id="42" type="pedType1" depart="10.50">
        <walk edges="86414070#3 -5786725#0 -5786725#1 9671594#1 9671594#2 9671594#3 -7389933#0 511461636 7390024#0 -74549431#4 -74549431#3 -74549431#1 107702677 107702678#0"/>
    </person>
    <person id="43" type="pedType1" depart="10.75">
        <walk edges="851166561#5 127677130#0 -4519925#6 -4519925#5 -4519925#4 -4519925#3 -4519925#2 -4519925#1 -4649467#3 4649467#2 -4649467#1 93072396#4 -93072396#4"/>
    </person>
    <person id="45" type="pedType1" depart="11.25">
        <walk edges="-108127809#0 108127804#1 108127804#0 -151866164#1 -475109925 151866167#0 151866167#1 309120864#1 309120864#2 309120864#3 309120864#4 309120864#5 95735556#2 95735556#1 -29424898#0 -29424898#1 -29424898#2 693718991#0 693718991#1"/>
    </person>
    <person id="46" type="pedType1" depart="11.50">
        <walk edges="149789269#3 -149789269#4 -317798564#2 180313803#4 22690583#3 22690583#2 22690583#1 22690583#0 51476082#3 51476082#2 51476082#1 22690584 -27222779#7 -27222779#8 -27222779#9 -134941607#13 -134941607#12 -134941607#9 -134941607#8 -134941607#7 113849539#2 113849539#3 313577318#2 113849535#11 113849535#10 113849535#9 -392103894#0 -392103894#1 -392103894#2 -392103894#3 -392103894#4 -392103894#5 -392103894#6 -392103894#7 -186553873#0"/>
    </person>
    <person id="47" type="pedType1" depart="11.75">
        <walk edges="346311427#3 24998362#10 4645396#0 -4645396#2 -4645396#3 -4645396#4 -392103885#2 -392103885#1 -392103885#0 39322009#12 129832685#2 -39322009#10 39322009#7 -39322009#6 39322009#4 -39322009#3 128539942#0 127478198"/>
    </person>
    <person id="48" type="pedType1" depart="12.00">
        <walk edges="15805471#4 129554904#6 129554904#5 129554904#4 129554904#3 129554904#2 129554904#1 129554904#0 15805471#8 15805471#9 -4055341#1 -4055341#2 -4055321#0 -4055321#1 157028977#0 307219424#0 -157028977#6 -157028977#7 -157028977#8 -118184266#2 118184266#1 118184264#0 118184262#2"/>
    </person>
    <person id="49" type="pedType1" depart="12.25">
        <walk edges="17960131#0 17960131#1 17960131#2 17960131#3 17960131#4 17960131#5 17960131#6 759006518 17961150 17958696#1 290661436 258777113#0 224088745#0 224088745#1 224088745#2 258777073 258777121#0 258777105 258777078 224088723#1 224088723#0 214785685#19 4427507#3 -152468888#0 -152468888#1 -870301207 279444893"/>
    </person>
    <person id="50" type="pedType1" depart="12.50">
        <walk edges="338649281#1 5343763#1 5343763#2 5343763#3 161970160#0 26416346#1 370878835#8 370878835#7 349858766#0 218848676#3 218848676#4 218848676#5 218848676#8 129552585 -30816876#2 317653698#0 218848676#11"/>
    </person>
    <person id="51" type="pedType1" depart="12.75">
        <walk edges="-851113023#5 -851113021#1 353017404#4 353017404#3 -392103885#0 -392103885#1 -392103885#2 -4645396#4 -4645396#3 -4645396#2 4645396#0 24998362#10 450396602#2 456607199#1 450228377#1 450396614 456607195#1 469691171#1 469691171#0 469691168"/>
    </person>
    <person id="52" type="pedType1" depart="13.00">
        <walk edges="300326719#7 300326719#9 -157102853#1 -157102853#0 -157093971#2 -157093971#1 -157093971#0 -157093972#2 310366317 123244273#0 -157188167#1 -38321273#1 -38321273#0 -206863693#11 -206863693#7 -206863693#6 -206863693#5 -206863693#4 -206863693#2 -206863693#1 81550335#5"/>
    </person>
    <person id="53" type="pedType1" depart="13.25">
        <walk edges="224088738 258777121#1 258777105 258777078 224088723#1 224088723#0 214785685#18 214785685#17 214785685#16 100024679#1 100024679#2 224088737 224088734#1 224088734#0 224088743#3 382286088 224088710 258777080#0 258777080#1 214785685#10 214785685#9 -4427576#1 -4662543 158399761#0 158399761#1 -88894451#1"/>
    </person>
    <person id="54" type="pedType1" depart="13.50">
        <walk edges="-227222856 128539928#1 155603766#19 155603766#21 -155603766#22 -39322009#2 129832685#8 129832685#9 129832685#10 129832685#11 129832685#12 113849535#2 113849539#13 113849539#12 113849535#4 113849535#5 113849535#6"/>
    </person>
    <person id="55" type="pedType1" depart="13.75">
        <walk edges="100024666#2 371746586#18 371746586#17 -50166118#2 551303742 254536152#2 493693636#0 493693636#1 -33699500#0 244296251#0 310731273#1 310731273#0 13855461 -235912727#8 -235912727#7 -235912727#6 -235912727#5 -235912727#4 235912727#3 -235912727#2 -235912727#1 -235912727#0 -10436938#3 -10436938#2 -10436938#1 12373489#0 12373489#1"/>
    </person>
    <person id="56" type="pedType1" depart="14.00">
        <walk edges="-5348232#16 -5348232#15 157032582#0 157032582#1 157032584 -4055900#6 4055327#1 4055327#0 -5344608#0 5344608#1 -5344608#1"/>
    </person>
    <person id="57" type="pedType1" depart="14.25">
        <walk edges="39322009#11 -39322009#10 -30199131#1 -851113023#5 -851113023#4 -851113023#1 -851113023#0 -851113024#1 -851113024#0 -851113025#3 -851113025#0 -851115542#1 352894103#16 352894103#17 678898007 678898006#0 33126952 352253628 352253631#7 352253631#8 155586944#0"/>
    </person>
    <person id="58" type="pedType1" depart="14.50">
        <walk edges="-4071766#2 -154470149#0 154470149#1 -89699198#0 -310729848#0 80239245#2 4649342#1 4649342#2 -4649342#3 4649342#4 -4649342#7 4649342#8 4649342#10 53267457#0 -53267457#1 392104948#4 306396737#4 306097064#1"/>
    </person>
    <person id="59" type="pedType1" depart="14.75">
        <walk edges="38626587#3 -38626587#2 -301541142#0 -301541142#3 -301541142#4 -301541142#5 -301541142#7 157188170#7 -300933267#1"/>
    </person>
    <person id="60" type="pedType1" depart="15.00">
        <walk edges="361035575#0 166123299#2 -273936882#1 273936882#2 -273936882#3 -273936882#4 151866165#3 151866165#2 409064421 475109924#1 475109924#0 -466144411 -475109927#0 -475109927#1 -475109927#2 -475109927#3 -475109925 -151866164#1 -151866164#3 -151866164#4 -151866164#6 -38868689#1 272438846#5 161766362#1 -161766362#2 -161766362#5 161766362#8 -24998128#0 312549780"/>
    </person>
    <person id="61" type="pedType1" depart="15.25">
        <walk edges="378298812#3 378298812#4 378298812#5 378298812#6 378298864 378298925#14 258747522 258747540 378298913#3 378298913#2 378298913#1 193703019#3 24039836#8 196055609 155546691 155546690 -86414068#1 -86414068#2 -5786047 -86414059#3 86414059#4 86414059#5 86414059#6"/>
    </person>
    <person id="62" type="pedType1" depart="15.50">
        <walk edges="456090781 776733540 -456090796#1 -8426245#1 -8426245#0 -851113024#1 -851113024#0 -851113025#3 -851113025#0 -851115542#1 38906714#1 -154575776#7 -154575776#5 -154575776#4 -154575776#3 154575776#2 155603789#6 155603782#1 317934876#0 540351562#1 365057331#0 365057331#1 365057330#1 -4649342#7 242860950#1 -242860952"/>
    </person>
    <person id="63" type="pedType1" depart="15.75">
        <walk edges="155546692 5785606 96755354 27531651#3 96755356 -5786047 -86414059#3 86414059#4 86414059#5 -86414059#6 24246446#3 -24246461 24246432#2 24246453 24246421#1 172709304 87358347#3 -92417836#1 92417836#2 -92417836#4 -92417836#5 -147478648#3"/>
    </person>
    <person id="64" type="pedType1" depart="16.00">
        <walk edges="475109927#0 -466144411 475109924#0 475109924#1 409064421 151866165#2 151866165#3 -273936882#4 -273936882#3 273936882#2 -273936882#1 166123299#2 -166123299#0 450252890#6 450252890#5 -450252894#2"/>
    </person>
    <person id="65" type="pedType1" depart="16.25">
        <walk edges="131494227 53791937 -286180062#2 286180062#3 -147557400#3 -147557400#2 -147557400#0 -58561799#1 58561800#1 -124559511 124559504#11 124559504#10 124559504#9 124559504#8 124559504#6 124559504#5 124559504#3 124559504#2 124559504#1 -124559504#0 50300586 -31097004#0 51317618 51317617"/>
    </person>
    <person id="66" type="pedType1" depart="16.50">
        <walk edges="-851153415 -157188165#3 -157188165#2 -157188165#1 -157188165#0 -30816923#2 -30816923#1 -851167804#3 851167804#2 -851167804#0 -154575774#3 8535659#0 -309806476"/>
    </person>
    <person id="67" type="pedType1" depart="16.75">
        <walk edges="-4649342#1 4649342#2 -4649342#3 4649342#4 -4649342#7 4649342#8 4649342#10 53267457#0 -53267457#1 5343456#0 5343456#1 5343456#2 29418700#0 -480932493 -307413368#0"/>
    </person>
    <person id="70" type="pedType1" depart="17.50">
        <walk edges="-4519926#1 -4519925#6 -4519925#5 -4519925#4 -4519927#4 -4519927#2 -155603789#5 155603789#6 155603782#1 317934876#0 540351562#1 365057331#0 365057331#1 365057330#1 -158901369#1 -158901369#3 -158901369#5 -158901369#7 -158901369#8 -158901369#9 -158901369#10 -80819312#1 -80819312#0 -80819311 -157106405#0 -157106405#1 74873671#0 74873670 74873669#1 80819308 -157106406#1"/>
    </person>
    <person id="71" type="pedType1" depart="17.75">
        <walk edges="768442404#1 -392069504 134929400#9 134929400#8 134929400#7 134929400#4 134929400#3 134929400#2 695667206#3 695667206#2 695667206#1 695667206#0 31095496#1 31095496#0 -51508352#0 -51476080#7 -51476080#6 -51476080#5 -51476080#4 -51476080#3 -51476080#2 -51476080#1 -51476080#0 344664988#1 344664988#0 -149789269#7 180313803#4 -317798564#2 -149789269#4 22690582#2"/>
    </person>
    <person id="72" type="pedType1" depart="18.00">
        <walk edges="96755357#0 27531651#2 96755356 -86414068#2 -86414068#1 -86414068#0 -332176204 618310628 252700830#1 252700830#0 252700829 -33487028#4 -33487028#3 33487028#2 -33487028#1 -157964859#0 33487027 371076643#1 -80737020#2 306396736#0 -80737022#3 80737022#1 80737022#0 300326719#12 300326719#10 300326719#9 -300326719#7 -300326719#5 -300326719#4 -870301217#0 870301217#1 -306097065"/>
    </person>
    <person id="73" type="pedType1" depart="18.25">
        <walk edges="378298925#14 378298925#15 378298925#16 258139185 258139190 378298903 378298901 378298851 378298916#1 378298839 378298899 378298805#1 378298805#11 378298874 378298807#12 378298807#11 378298807#10 378298833 409721067 378298921#1 409721065 258747537 258139191#0 258139191#1 258139178 258747530 24039836#4 24039836#3 24039836#2 24039836#1 24039836#0 -157964859#0 33487027 371076643#1 80737020#4"/>
    </person>
    <person id="74" type="pedType1" depart="18.50">
        <walk edges="-491295714#1 417715928#3 371684351#1 450252890#0 450252890#13 450252890#11 450252890#10 450252890#9 429572836#0 450252890#7 -166123299#0 166123299#2 -273936882#1 273936882#2 -273936882#3 -273936882#4 151866165#3 151866165#2 409064421 475109924#1 475109924#0 -466144411 -475109927#0 -475109927#1 -475109927#2 -475109927#3 -475109925 -151866164#1 -151866164#3 -151866164#4 -151866164#6 -505114029#2 -505114074#0"/>
    </person>
    <person id="75" type="pedType1" depart="18.75">
        <walk edges="343277917#5 -343277917#5 -157188177#2 -157188177#1 -157188177#0 -300559237#6 -165280261#3 300559237#3 -38626612#8"/>
    </person>
    <person id="76" type="pedType1" depart="19.00">
        <walk edges="344664988#1 344664988#0 -149789269#7 180313803#4 -317798564#2 -149789269#4 -149789269#3 22690577#0 22690577#1 22690577#2 51476086#2 316079862 51476081#4 51476081#3 51476081#2 173245155#1 173245155#2 27222779#1 27222781#1 725976306 725976302#9 725976302#8 725976302#7 113849548#0 725976302#5 725976302#4"/>
    </person>
    <person id="77" type="pedType1" depart="19.25">
        <walk edges="172709302#0 -172709302#1 172709302#2 172709302#3 -86414059#6 86414059#5 86414059#4 -86414059#3 -5786047 -86414068#2 -86414068#1 -86414068#0 -332176204 618310628 252700830#1 252700830#0 252700829 -33487028#4 -33487028#3 33487028#2 -33487028#1 258139200#0 258139176 258747554 346040148#2 258747531 346040142 105289323#3 258747553"/>
    </person>
    <person id="78" type="pedType1" depart="19.50">
        <walk edges="455324722 17968911#3 17969172#0 17969172#1 -58807376#2 58807376#0 242358064#0 -40317920#0 -455843462#1 455843462#2 455843462#3 455843462#4 455843462#6 -455843462#7 -533428478 -192123865#6 -192123865#7 -192123865#8"/>
    </person>
    <person id="79" type="pedType1" depart="19.75">
        <walk edges="38626612#8 300559237#1 -249275879#2 310366318#1 119695889 27417491#1"/>
    </person>
    <person id="80" type="pedType1" depart="20.00">
        <walk edges="35869619#1 35869619#0 35869620#0 35869622 35869623#0 35869623#1 431528627#2 431528627#0 12695626#3 39119422#1 19446386 143586044#1 -23304278#2 -23304278#3 23304323#1 23304323#0 -4817690#2 -4817690#1 4817690#0 143558110#8 23303957 -8310145#2 -8310145#3 -8310145#4 -451790951#0 367241954#1 367241954#0"/>
    </person>
    <person id="81" type="pedType1" depart="20.25">
        <walk edges="-155055228#2 -155055228#1 151996170#3 151996170#2 352272293#3 352272292#0 352272292#1 -89699186#1 89699186#2 -89699186#3 -89699186#4 17961570#1 17961570#0 17961457#1"/>
    </person>
    <person id="82" type="pedType1" depart="20.50">
        <walk edges="-24998128#0 161766362#8 -161766362#5 -161766362#2 -24998222#2 -24998222#1 -24998222#0 -30616063#1 -39322228#1 851166559#1 851166559#4"/>
    </person>
    <person id="84" type="pedType1" depart="21.00">
        <walk edges="286179739#1 286179739#0 286179738 -149935566#1 -149935566#0 376401312#8 309990221#0 223163710 122159111#0 122159111#1 122159111#2 144291484 144291493#2 144291489 317892956"/>
    </person>
    <person id="85" type="pedType1" depart="21.25">
        <walk edges="236038533#0 236038533#1 236038527 236038530#1 236038524 -392103894#5 -392103894#6 -392103894#7 186553873#0 -490386700 -16786171#5 -16786171#4 -16786171#3 -16786171#2 -16786171#1 4645396#0 -4645396#2 -4645396#3 -4645396#4 -312549780 -24998128#0 161766362#8 -161766362#5 24952877#0 114275410#4 114275410#3 -24952793#1 24952793#2 -24952793#2"/>
    </person>
    <person id="87" type="pedType1" depart="21.75">
        <walk edges="93320850#2 93320850#3 93320850#4 -165280261#7 300559237#3 -165280261#3 -300559237#6 -300559237#7 300559240#0 -218270484#1 -315224432 38862846#0 7389631#1 7389631#0 9671594#3 9671594#2 9671594#1 34140426#2"/>
    </person>
    <person id="88" type="pedType1" depart="22.00">