<?xml version="1.0" encoding="UTF-8"?>

<!-- generated on 2021-08-10 17:16:16 by Eclipse SUMO duarouter Version v1_9_2+0043-66864b7fc8
<configuration xmlns:xsi="http://www.w3.org/2001/XMLSchema-instance" xsi:noNamespaceSchemaLocation="http://sumo.dlr.de/xsd/duarouterConfiguration.xsd">

    <input>
        <net-file value="../munich.net.xml"/>
        <additional-files value="trip_custom.xml"/>
        <route-files value="munich_ped120_small.trips.xml"/>
    </input>

    <output>
        <output-file value="munich_ped120_small.rou.xml"/>
        <alternatives-output value="munich_ped120_small.rou.alt.xml"/>
    </output>

    <processing>
        <remove-loops value="true"/>
    </processing>

    <time>
        <begin value="0"/>
        <end value="30"/>
    </time>

    <report>
        <verbose value="true"/>
        <ignore-errors value="true"/>
        <no-step-log value="true"/>
    </report>

</configuration>
-->

<routes xmlns:xsi="http://www.w3.org/2001/XMLSchema-instance" xsi:noNamespaceSchemaLocation="http://sumo.dlr.de/xsd/routes_file.xsd">
    <vType id="pedType1" maxSpeed="1.40" speedFactor="normc(1.00,0.19,0.14,1.43)"/>
    <person id="0" type="pedType1" depart="0.00">
        <walk edges="31094450#2 31094450#1 292377039 23885024#2 23885024#1 23885024#0 134929396#12 -51508352#10 134929396#14 -89840548#2 -4262211#8 151996170#2 352272293#3 352272292#0 352272292#1 -154470149#0 4649336#1 -4649336#2 -4649341#0 -154470144#1"/>
    </person>
    <person id="1" type="pedType1" depart="0.10">
        <walk edges="-93072396#4 93072396#4 -93072396#3 -93072396#1 -93072396#0 30816863#0 30816863#1 100321826#2 100321826#1 100321826#0 831762506#1 540351562#1 365057331#0 365057331#1 365057330#1 -158901369#1 -158901369#3 -158901369#5 -158901369#7 -158901369#8 -158901369#9 -158901369#10 -80819312#1"/>
    </person>
    <person id="2" type="pedType1" depart="0.20">
        <walk edges="371746586#25 371746586#24 17960131#9 17960131#8 17960131#7 17960131#6 17960131#5 17960131#4 17960131#3 17960131#2 275157011#0 275157011#1 275157011#2 275160165#1 275160165#0 -154470141 -4649341#2 -80239245#1 80239245#2 -310729848#0 -83028195#6 33126943#3 352253631#4 352253631#3 352253631#2"/>
    </person>
    <person id="3" type="pedType1" depart="0.30">
        <walk edges="737289076 -155055228#1 78713657#1 352895424 352894103#17 678898007 678898006#0 678898006#1 678898006#2 352253631#5 33126943#3 -83028195#6 -310729848#0 80239245#2 4649342#1 4649342#2 -4649342#3 4649342#4 -4649342#7 4649342#8 -306248075"/>
    </person>
    <person id="4" type="pedType1" depart="0.40">
        <walk edges="17961457#1 17961457#0 17961303#0 17961106#4 17961106#5 -4649336#3 -4649336#2 4649336#1 154470149#1 -154470149#1"/>
    </person>
    <person id="5" type="pedType1" depart="0.50">
        <walk edges="-154470146#1 -154470146#0 352272292#1 352272292#0 352272293#3 151996170#2 151996170#3 -78713657#1"/>
    </person>
    <person id="6" type="pedType1" depart="0.60">
        <walk edges="32972691#2 300326722 240827925 32972706 252381356 -86414065#2 -86414065#3 -80819312#1 -80819312#0 -224086894 -224086893#2 255404785 255440593 255440594#1"/>
    </person>
    <person id="7" type="pedType1" depart="0.70">
        <walk edges="-80819310#1 -80239247#0 -80239247#1 -80239247#2 -80239246#1 17962377#0 17960546#0 668342584#0 668342584#1 275157011#2"/>
    </person>
    <person id="8" type="pedType1" depart="0.80">
        <walk edges="455427398 -224089401#1 244582812#2 244582812#1 682508604#0 93192045#0 93192024#2 93192024#1 93192024#0 93192044#1 -93192044#2 -113619165#0"/>
    </person>
    <person id="9" type="pedType1" depart="0.90">
        <walk edges="4519927#4 -4519925#3 -4519925#2 -4519925#1 -4649467#3 4649467#2 -4649467#1 93072396#4 352253631#1 352253631#2 352253631#3 352253631#4 33126943#5 33126943#6 33126943#7 33126943#8 -155586944#0 352272295#3"/>
    </person>
    <person id="10" type="pedType1" depart="1.00">
        <walk edges="89699186#3 89699186#2 -89699186#1 352272292#1 352272292#0 352272293#3 151996170#2 -4262211#8 -89840548#2 134929396#14 -51508352#10 134929396#12 -51508352#8 134929396#10 134929396#9"/>
    </person>
    <person id="11" type="pedType1" depart="1.10">
        <walk edges="506111187 506111201#1 506111201#0 722674004#1 722674008 722674007 370266529 -4645400#0 -4645400#1 -4645400#2 -4645400#3 -4645400#4 -89840550#0 -4262225#3 -4262225#2 -4262225#1 23885024#0 23885024#1 23885024#2 292377038 31094449#1 31094446#1 292377037"/>
    </person>
    <person id="12" type="pedType1" depart="1.20">
        <walk edges="252381354 -158901369#9 -158901369#8 -158901369#7 -158901369#5 -158901369#3 -158901369#1 -4649342#7 4649342#4 -4649342#3 4649342#2 4649342#1 80239245#2 -310729848#0 -83028195#6 33126943#3 33126943#5 33126943#6 33126943#7 33126943#8 -155586944#0 -89699184#0 30603896#0 -89840550#5 89840550#4"/>
    </person>
    <person id="13" type="pedType1" depart="1.30">
        <walk edges="155055228#2 -155055228#1 78713657#1 352895424 352894103#17 678898007 678898006#0 678898006#1 678898006#2 352253631#5 33126943#3 -83028195#6 -310729848#0 80239245#2 -80239245#1 -80239245#0 80239244#1 -80239244#0 -323871723 214785685#14 214785685#15 100024679#1 100024679#2 224088737 224088734#1 224088734#0 224088743#2 224088743#1 224088743#0 258777076"/>
    </person>
    <person id="14" type="pedType1" depart="1.40">
        <walk edges="4649342#7 4649342#4 -4649342#3 4649342#2 4649342#1 80239245#2 -310729848#0 -83028195#6 33126943#3 33126943#5 33126943#6 33126943#7 33126943#8 -155586944#0 -89699184#0 30603896#0"/>
    </person>
    <person id="15" type="pedType1" depart="1.50">
        <walk edges="53530907#5 -53530907#6 -53530907#7 -392069505 -4645400#4 -4645400#3 -4645400#2 -4645400#1 -4645400#0 370266529 722674007 722674008 722674004#1 722674006#1 -93192027#0 -154470139 -93192045#2 -93192045#1 93192045#0 93192024#2 89840530#0 151263120 -151263118#0 151263118#2 -482117464 371746586#27 371746586#26 371746586#25 371746586#24 371746586#23 258777104 258777097 258777113#1 224088745#0 224088745#1 258777116#1 258777116#0"/>
    </person>
    <person id="16" type="pedType1" depart="1.60">
        <walk edges="352894103#18 678898007 678898006#0 678898006#1 678898006#2 352253631#5 352253631#4 352253631#3 352253631#2 352253631#1 93072396#4 -93072396#3 -93072396#1 -93072396#0 30816863#0 30816863#1 100321826#2 100321826#1 100321826#0 831762506#1 317934876#0 155603782#1 155603789#6 -155603789#5"/>
    </person>
    <person id="17" type="pedType1" depart="1.70">
        <walk edges="-83028195#1 80239245#2 -310729848#0 -89699198#0 154470149#1 -154470149#0 -154470146#0 -154470146#1 -154470146#2 -154470146#3 -154470138#3 -154470138#4 -154470138#5 -93195854#0 -93195854#1"/>
    </person>
    <person id="18" type="pedType1" depart="1.80">
        <walk edges="-287522834#2 352253631#4 33126943#3 -83028195#6 -310729848#0 80239245#2 4649342#1 4649342#2 -4649342#3 4649342#4 -4649342#7 4649342#8 4649342#10 -83028196#2"/>
    </person>
    <person id="19" type="pedType1" depart="1.90">
        <walk edges="-365762132#0 -60363514 214785685#9 214785685#10 214785685#11 214785685#12 214785685#13 371746586#17 371746586#18 371746586#19 371746586#20 371746586#21 371746586#22 371746586#23 371746586#24 371746586#25 371746586#26 371746586#27 -482117464 151263118#2 -151263118#0 151263120 89840530#0 93192024#2 93192045#0 -93192045#1 -93192045#2 -154470139 -93192027#0"/>
    </person>
    <person id="20" type="pedType1" depart="2.00">
        <walk edges="31094449#2 31094449#1 292377038 23885024#2 23885024#1 23885024#0 134929396#12 -51508352#10 134929396#14 -89840548#2 -4262211#8 151996170#2 352272293#3 352272292#0 352272292#1 154470149#0"/>
    </person>
    <person id="21" type="pedType1" depart="2.10">
        <walk edges="154575774#1 155603789#6 155603782#1 317934876#0 540351562#1 365057331#0 365057331#1 365057330#1 -158901369#1 -158901369#3 -158901369#5 -158901369#7 -158901369#8 -158901369#9 -158901369#10 -80819310#0 -80819310#1 -80239247#0 -80239247#1 -80239247#2 -80239246#1 -80239246#2"/>
    </person>
    <person id="22" type="pedType1" depart="2.20">
        <walk edges="-89840550#4 -89840550#5 30603896#0 -89699184#0 -155586944#0 33126943#8 33126943#7 33126943#6 33126943#5 33126943#3 -83028195#6 -310729848#0 80239245#2 4649342#1 4649342#2 -4649342#3 4649342#4 240394032#0 241935344 84632631"/>
    </person>
    <person id="23" type="pedType1" depart="2.30">
        <walk edges="32972691#0 32972691#2 300326722 240827925 32972706 252381356 -86414065#2 -86414065#3 -80819312#1 -80819312#0 300559210"/>
    </person>
    <person id="24" type="pedType1" depart="2.40">
        <walk edges="-480885710 4649342#8 -158901369#1 -158901369#3 -158901369#5 -158901369#7 -158901369#8 -158901369#9 -158901369#10 -80819310#0 -80819310#1 -4649339 -80239249#0 -80239249#1 -80239249#2 86414052#0 371746586#16"/>
    </person>
    <person id="25" type="pedType1" depart="2.50">
        <walk edges="-4649342#10 4649342#10 4649342#8 -4649342#7 4649342#4 -4649342#3 4649342#2 4649342#1 80239245#2 -310729848#0 -83028195#6 33126943#3 352253631#5 678898006#2 678898006#1 678898006#0 678898007 352894103#17 352895424 78713657#1 -155055228#1 -155055228#2 155055228#3"/>
    </person>
    <person id="26" type="pedType1" depart="2.60">
        <walk edges="93192037#1 -93192037#2 -93192037#3 -93192037#4 -152468888#0 -152468888#1 -152468888#2 -152468888#3 -152468888#4 -152468888#5 493693636#0 254536152#2 551303742 -50166118#2 31344436#1"/>
    </person>
    <person id="27" type="pedType1" depart="2.70">
        <walk edges="258777082 338660655 224088734#1 224088737 100024679#2 100024679#1 214785685#16 214785685#17 214785685#18 214785685#19 214785685#20 214785685#21 214785685#22 -4427964#0 -89699186#6 -89699186#5 -89699186#4 -89699186#3 89699186#2 -89699186#1 352272292#1 352272292#0 352272293#3 352272283#5"/>
    </person>
    <person id="28" type="pedType1" depart="2.80">
        <walk edges="482117466#2 214785685#25 -151263118#0 151263120 89840530#0 93192024#2 93192045#0 -93192045#1 -93192045#2 -93192033#0 -93192033#1 -89840533#6 -154470138#3 -154470138#2 -154470138#1 -4071768#2 -4071768#1 -4262221#2 4262221#1"/>
    </person>
    <person id="29" type="pedType1" depart="2.90">
        <walk edges="-83028195#3 -89699198#0 154470149#1 -154470149#0 -89699186#1 89699186#2 -154470151#2"/>
    </person>
    <person id="30" type="pedType1" depart="3.00">
        <walk edges="114256584#1 114256584#0 114256582#0 114256576#0 114256576#1 -851113025#3 -851113025#0 -155055228#3 -155055228#2 -155055228#1 151996170#3 151996170#2 30603896#0 -89840550#5"/>
    </person>
    <person id="31" type="pedType1" depart="3.10">
        <walk edges="-80239246#5 -4649336#3 -4649336#2 4649336#1 154470149#1 -89699198#0 -83028195#6 33126943#3 151754277#2 410655508#0 410655508#1 -851166562#1 -851166562#0 851166560#1"/>
    </person>
    <person id="32" type="pedType1" depart="3.20">
        <walk edges="668342584#0 668342584#1 275157011#1 275157011#0 17960131#2 17960131#3 17960131#4 17960131#5 17960131#6 17960131#7 17960131#8 17960131#9 371746586#24 371746586#25 371746586#26 371746586#27 -482117464 151263118#2 -151263118#0 365762133 135588108#1 93192024#0 93192044#1 -93192044#2 -113619165#0 113619165#1"/>
    </person>
    <person id="33" type="pedType1" depart="3.30">
        <walk edges="33126943#5 33126943#3 -83028195#6 -310729848#0 80239245#2 -80239245#1 -4649341#2 -154470141 275160165#0 275160165#1 275157011#2 275157011#1 275157011#0 17960131#2 17960131#3 17960131#4 17960131#5 17960131#6 759006518 17961150 17958696#1"/>
    </person>
    <person id="34" type="pedType1" depart="3.40">
        <walk edges="80239247#0 -80819310#1 -80819310#0 -80819312#1 -80819312#0 -224086893#0 224086893#1"/>
    </person>
    <person id="35" type="pedType1" depart="3.50">
        <walk edges="-89840550#1 -89840550#2 -89840550#3 -89840550#4 -89840550#5 30603896#0 -89699184#0 -155586944#0 33126943#8 33126943#7 33126943#6 33126943#5 33126943#3 -83028195#6 -310729848#0 80239245#2 4649342#1 4649342#2 -4649342#3 4649342#4 -4649342#7 -158901369#1 -158901369#3 -158901369#5 -158901369#7 -158901369#8 -158901369#9 -158901369#10 -86414065#3 -86414065#2"/>
    </person>
    <person id="36" type="pedType1" depart="3.60">
        <walk edges="275157010#0 17960131#2 275157011#0 275157011#1 668342584#1 668342584#0 17960546#0 17962377#0 -80239246#1 -80239247#2 -80239247#1 -80239247#0 -4649339 -80239249#0 779277889"/>
    </person>
    <person id="37" type="pedType1" depart="3.70">
        <walk edges="17960131#0 -17962377#1 17962377#0 -80239246#1 -80239247#2 -80239247#1 -80239247#0 -80819310#1 -80819310#0 -80819312#1 -80819312#0 -80819311 -80819305"/>
    </person>
    <person id="38" type="pedType1" depart="3.80">
        <walk edges="93195854#0 -154470138#5 -154470138#4 -154470138#3 -154470146#3 -154470146#2 -154470146#1 -154470146#0 -154470149#0 154470149#1 -89699198#0 -310729848#0 80239245#2 4649342#1 4649342#2 -4649342#3 4649342#4 240394032#0 240394032#1"/>
    </person>
    <person id="39" type="pedType1" depart="3.90">
        <walk edges="-31344436#2 -86414052#1 86414052#0 -80239249#2 -80239249#1 -80239249#0 -4649339 -80819310#1 -80819310#0 -158901369#10 -158901369#9 -158901369#8 -158901369#7 -158901369#5 -158901369#3 -158901369#1 365057330#1 365057331#1 365057331#0 540351562#1 317934876#0 155603782#1 -155603789#6"/>
    </person>
    <person id="40" type="pedType1" depart="4.00">
        <walk edges="-392069505 -89840550#0 -4262225#3 -4262225#2 -4262225#1 23885024#0 23885024#1 23885024#2 292377038 31094449#1 31094446#2"/>
    </person>
    <person id="41" type="pedType1" depart="4.10">
        <walk edges="449741714#0 449741714#1 -113619165#0 -93192044#2 93192044#1 93192024#0 135588108#1 365762133 -151263118#0 151263118#2 -482117464 371746586#27 17961457#3 17961457#2"/>
    </person>
    <person id="42" type="pedType1" depart="4.20">
        <walk edges="-235974276 -34130308#0 -51508352#6 134929396#10 -51508352#8 134929396#12 -51508352#10 134929396#14 -51508352#12 78713657#1 352895424 352894103#17 678898007 678898006#0 678898006#1 678898006#2 352253631#5 352253631#4 352253631#3 352253631#2 352253631#1 93072396#4 -93072396#3 -93072396#1 -93072396#0 30816863#0 30816863#1 100321826#2 100321826#1 100321826#0 831762506#1 317934876#0 155603782#1"/>
    </person>
    <person id="43" type="pedType1" depart="4.30">
        <walk edges="93192045#2 -93192045#1 93192045#0 93192024#2 89840530#0 151263120 -151263118#0 -224089403#0 244582807"/>
    </person>
    <person id="44" type="pedType1" depart="4.40">
        <walk edges="89840550#2 -89840550#1 -89840550#0 -392069505 -53530907#7 -53530907#6 -53530907#5 53530907#4"/>
    </person>
    <person id="45" type="pedType1" depart="4.50">
        <walk edges="-151263118#2 -482117464 365762136"/>
    </person>
    <person id="46" type="pedType1" depart="4.60">
        <walk edges="352253631#8 33126943#8 33126943#7 33126943#6 33126943#5 33126943#3 -83028195#6 -310729848#0 80239245#2 4649342#1 4649342#2 -4649342#3 4649342#4 -4649342#7 -158901369#1 -158901369#3 -158901369#5 -158901369#7 -158901369#8 -158901369#9 -158901369#10 -86414065#3 -86414065#2 -86414065#1 -86414065#0 -365762132#2 -365762132#1 252381355"/>
    </person>
    <person id="47" type="pedType1" depart="4.70">
        <walk edges="-89840550#4 -89840550#5 30603896#0 352272293#3 352272292#0 352272292#1 -89699186#1 89699186#2 -89699186#3 -89699186#4 -89699186#5 -89699186#6 371746586#27 371746586#26 371746586#25 371746586#24 371746586#23 371746586#22 371746586#21 371746586#20 371746586#19 371746586#18 371746586#17 214785685#13 214785685#12 214785685#11 214785685#10 -37758669#1 31344436#2"/>
    </person>
    <person id="48" type="pedType1" depart="4.80">
        <walk edges="-392104943#3 -158901369#1 -158901369#3 -158901369#5 -158901369#7 -158901369#8 -158901369#9 -158901369#10 -80819310#0 -80819310#1 -80239247#0 -80239247#1 -80239247#2 80239244#1 -80239244#0 -323871723 214785685#13"/>
    </person>
    <person id="49" type="pedType1" depart="4.90">
        <walk edges="218848676#10 -83028196#7 -30816876#2 540351562#1 365057331#0 365057331#1 365057330#1 -158901369#1 -158901369#3 -158901369#5 -158901369#7 -158901369#8 -158901369#9 -158901369#10 86414065#3"/>
    </person>
    <person id="50" type="pedType1" depart="5.00">
        <walk edges="668342584#0 17960546#0 17962377#0 -80239246#1 -80239245#0 -80239245#1 80239245#2 -310729848#0 -83028195#6 33126943#3 352253631#5 678898006#2 678898006#1 678898006#0 678898007 352894103#17 352894103#16 -851115542#1 -851113026#0 -89840548#6"/>
    </person>
    <person id="51" type="pedType1" depart="5.10">
        <walk edges="23885110#4 23885110#3 23885110#2 23885152#0 -4262221#1 -4262221#2 -51508352#10"/>
    </person>
    <person id="52" type="pedType1" depart="5.20">
        <walk edges="80239246#7 -4649336#3 -4649336#2 4649336#1 154470149#1 -89699198#0 -83028195#6 33126943#3 352253631#4 352253631#3 352253631#2 352253631#1 93072396#4 -93072396#3 -93072396#1 -93072396#0 30816863#0 30816863#1 100321826#2 100321826#1 100321826#0 831762506#1 540351564#8"/>
    </person>
    <person id="53" type="pedType1" depart="5.30">
        <walk edges="100321826#0 100321826#1 100321826#2 30816863#1 30816863#0 -93072396#0 -93072396#1 -93072396#3 93072396#4 352253631#1 352253631#2 352253631#3 352253631#4 352253631#5 678898006#2 678898006#1 678898006#0 678898007 352894103#17 352895424 78713657#1 -51508352#12 134929396#14 -51508352#10 134929396#12 23885024#0 23885024#1 23885024#2 292377039 31094450#1"/>
    </person>
    <person id="54" type="pedType1" depart="5.40">
        <walk edges="394617671 33126943#1 33126943#0 93072396#4 -93072396#3 -93072396#1 -93072396#0 30816863#0 30816863#1 100321826#2 100321826#1 100321826#0 831762506#1 540351562#1 365057331#0 365057331#1 365057330#1 -158901369#1 -158901369#3 -158901369#5 -158901369#7 -158901369#8 -158901369#9 -158901369#10 -80819312#1 -80819312#0 -224086894 -224086893#2 255404785"/>
    </person>
    <person id="55" type="pedType1" depart="5.50">
        <walk edges="4262222#1 -4262222#1 -4262221#0 -4262221#1 -4262221#2 -4071768#1 -4071768#2 -154470138#1 -154470138#2 -154470138#3 -89840533#6 -93192033#1 -93192033#0 -93192045#2 -93192045#1 682508604#0 244582812#1"/>
    </person>
    <person id="56" type="pedType1" depart="5.60">
        <walk edges="-108719346 -4519927#5 -4519925#3 -4519925#2 -4519925#1 -4649467#3 109067914#3 134034981 134034972#0"/>
    </person>
    <person id="57" type="pedType1" depart="5.70">
        <walk edges="-154470138#1 89840543 -4075783#2 -4075783#0 30603896#0 -89699184#0 -155586944#0 33126943#8 33126943#7 33126943#6 33126943#5 33126943#3 -83028195#6 -310729848#0 80239245#2 83028195#3"/>
    </person>
    <person id="58" type="pedType1" depart="5.80">
        <walk edges="678898006#0 678898006#1 678898006#2 352253631#5 352253631#4 352253631#3 352253631#2 352253631#1 93072396#4 4649467#1"/>
    </person>
    <person id="59" type="pedType1" depart="5.90">
        <walk edges="109067914#2 109067914#1 109067914#0 -93072396#1 -93072396#0 30816863#0 30816863#1 100321826#2 100321826#1 100321826#0 831762506#1 540351562#1 365057331#0 365057331#1 365057330#1 -158901369#1 -158901369#3 -158901369#5 -158901369#7 -158901369#8 -158901369#9 -158901369#10 -80819312#1 -80819312#0 -224086894 -224086893#2"/>
    </person>
    <person id="60" type="pedType1" depart="6.00">
        <walk edges="-302309733 -158901369#8 -158901369#7 -158901369#5 -158901369#3 -158901369#1 365057330#1 365057331#1 365057331#0 540351562#1 317934876#0 155603782#1 155603789#6 154575776#2 -154575776#3 -154575776#4 -154575776#5 -154575776#7 38906714#1 -851115542#1 -851113025#0 23856918"/>
    </person>
    <person id="61" type="pedType1" depart="6.10">
        <walk edges="-242860952 242860950#1 4649342#4 -4649342#3 -152468883#3 -152468883#2 -152468883#1 -152468883#0 -80239247#0 -80239247#1 -80239247#2 80239244#1 -80239244#0 -323871723 371746586#17 371746586#18 100024666#1 100024666#0 224088726 258777083 392450645"/>
    </person>
    <person id="62" type="pedType1" depart="6.20">
        <walk edges="4071766#2 151996170#2 -4262211#8 -89840548#2 134929396#14 -4262221#2 -4262221#1 -4262221#0 -4262222#1 -4262222#0"/>
    </person>
    <person id="63" type="pedType1" depart="6.30">
        <walk edges="224088743#2 224088743#1 224088741 258777083 224088726 100024666#0 100024666#1 371746586#19 371746586#20 224088740#0 258777072"/>
    </person>
    <person id="64" type="pedType1" depart="6.40">
        <walk edges="-89840550#2 -89840550#3 -89840550#4 -89840550#5 30603896#0 -89699184#0 -155586944#0 33126943#8 33126943#7 33126943#6 33126943#5 352253631#4 352253631#3 352253631#2 352253631#1 93072396#4 -93072396#3 -93072396#1 -93072396#0 30816863#0 30816863#1 540351575 540351572"/>
    </person>
    <person id="65" type="pedType1" depart="6.50">
        <walk edges="17961457#3 17961457#2 17961457#1 17961457#0 17961303#0 17961106#4 17961106#5 80239246#7 -80239246#7"/>
    </person>
    <person id="66" type="pedType1" depart="6.60">
        <walk edges="255404785 -224086893#2 -224086894 -80819312#0 -80819312#1 -80819310#0 -80819310#1 -80239247#0 -80239247#1 -80239247#2 80239244#1 -80239244#0 -323871723 371746586#17"/>
    </person>
    <person id="67" type="pedType1" depart="6.70">
        <walk edges="-78726719#0 352253631#5 151754277#2 410655508#0 410655508#1 -851166562#1 -851166562#0 851166560#1 851166560#0 112071295#10"/>
    </person>
    <person id="68" type="pedType1" depart="6.80">
        <walk edges="93192045#1 93192045#0 93192024#2 89840530#0 151263120 -151263118#0 151263118#2 -482117464 371746586#27 371746586#26 371746586#25 371746586#24 371746586#23 371746586#22 371746586#21 371746586#20 371746586#19 371746586#18 371746586#17 214785685#13 214785685#12 214785685#11 214785685#10 214785685#9 -60363514 -365762132#0 -365762132#1 -365762132#2 -86414065#0 -86414065#1 252381356 32972706 240827925 300326722 32972691#2"/>
    </person>
    <person id="69" type="pedType1" depart="6.90">
        <walk edges="214785685#17 214785685#16 214785685#15 214785685#14 -323871723 -80239244#0 80239244#1 -80239247#2 -80239247#1 -80239247#0 -152468883#0 -152468883#1 -152468883#2 -152468883#3 -4649342#3 4649342#4 240394032#0 241935344"/>
    </person>
    <person id="70" type="pedType1" depart="7.00">
        <walk edges="-4075783#2 -4075783#0 30603896#0 352272293#3 352272292#0 352272292#1 -89699186#1 89699186#2 -89699186#3 -89699186#4 -89699186#5 -89699186#6 -4427964#0 214785685#22 214785685#21 214785685#20 214785685#19 214785685#18 -817170346#2"/>
    </person>
    <person id="71" type="pedType1" depart="7.10">
        <walk edges="135588108#0 135588108#1 365762133 -151263118#0 151263118#2 -482117464 371746586#27 371746586#26 371746586#25 371746586#24 17960131#9 17960131#8 17960131#7 17960131#6 17960131#5 17960131#4 17960131#3 17960131#2 275157011#0 275157011#1"/>
    </person>
    <person id="72" type="pedType1" depart="7.20">
        <walk edges="-83028195#7 33126943#3 -83028195#6 -310729848#0 80239245#2 -80239245#1 -80239245#0 -80239247#2 -80239247#1 -80239247#0 -80819310#1 -80819310#0"/>
    </person>
    <person id="73" type="pedType1" depart="7.30">
        <walk edges="-83028195#3 -310729848#0 80239245#2 -80239245#1 -80239245#0 80239244#1 80239244#0"/>
    </person>
    <person id="74" type="pedType1" depart="7.40">
        <walk edges="-851113026#1 -851113026#0 -851115542#1 352894103#16 352894103#17 678898007 678898006#0 33126952 352253628 352253631#7 352253631#8 33126943#8 33126943#7 352253625"/>
    </person>
    <person id="75" type="pedType1" depart="7.50">
        <walk edges="-80239247#1 -80239247#2 -80239246#1 17962377#0 17960546#0 668342584#0 668342584#1 275157011#1 275157011#0 17960131#2 17960131#3 17960131#4 17960131#5 17960131#6 17960131#7 17960131#8 17960131#9 371746586#24 371746586#25 371746586#26 371746586#27 -4427964#0"/>
    </person>
    <person id="76" type="pedType1" depart="7.60">
        <walk edges="83028196#7 -30816876#2 540351562#1 365057331#0 365057331#1 365057330#1 -158901369#1 -158901369#3 -158901369#5 -158901369#7 -158901369#8 -158901369#9 -158901369#10 -80819310#0 -80819310#1 -80239247#0 -80239247#1 -80239247#2 -80239246#1 17962377#0 17960546#0 668342584#0 668342584#1 275157011#1 275157011#0 17960131#2 17960131#3 17960131#4 17960131#5 17960131#6 759006518 17961150 17958696#1 290661436 258777113#0 224088745#0 224088745#1 224088745#2 258777073 258777121#0 258777105 258777078 224088723#1 224088723#0 214785685#19 214785685#20 258777111#1 258777111#0"/>
    </person>
    <person id="77" type="pedType1" depart="7.70">
        <walk edges="224088741 258777083 224088726 100024666#0 100024666#1 371746586#19 371746586#20 371746586#21 371746586#22 371746586#23 371746586#24 371746586#25 371746586#26 371746586#27 -482117464 151263118#2 -151263118#0 365762133 135588108#1 93192024#0 93192044#1 -93192044#2 -113619165#0 449741714#1 449741691"/>
    </person>
    <person id="78" type="pedType1" depart="7.80">
        <walk edges="4519927#7 -4519927#5 -4519927#4 -4519927#2 -155603789#5 155603789#6 155603782#1 317934876#0 540351562#1 365057331#0 365057331#1 365057330#1 -158901369#1 -158901369#3 -158901369#5 -682992435"/>
    </person>
    <person id="79" type="pedType1" depart="7.90">
        <walk edges="-340308606 -851113025#0 -851115542#1 352894103#16 352894103#17 678898007 678898006#0 678898006#1 678898006#2 352253631#5 33126943#3 -83028195#6 -310729848#0 80239245#2 -80239245#1 -80239245#0 -80239246#1 17962377#0 -17962377#1 17962377#2"/>
    </person>
    <person id="80" type="pedType1" depart="8.00">
        <walk edges="17961457#4 371746586#26 371746586#25 371746586#24 371746586#23 371746586#22 371746586#21 371746586#20 371746586#19 371746586#18 371746586#17 214785685#14 214785685#15 100024679#1 100024679#2 224088737 224088734#1 224088734#0"/>
    </person>
    <person id="81" type="pedType1" depart="8.10">
        <walk edges="371746586#16 86414052#0 -80239249#2 -80239249#1 -80239249#0 -4649339 -80819310#1 -80819310#0 -158901369#10 -158901369#9 -158901369#8 -158901369#7 -158901369#5 -158901369#3 -158901369#1 365057330#1 365057331#1 365057331#0 540351562#1 540351564#8 218848675#0 352253630#1"/>
    </person>
    <person id="82" type="pedType1" depart="8.20">
        <walk edges="93192024#0 135588108#1 365762133 -151263118#0 151263118#2 -482117464 371746586#27 371746586#26 371746586#25 371746586#24 17960131#9 17960131#8 17960131#7 17960131#6 17960131#5 17960131#4 17960131#3 17960131#2 275157011#0 275157011#1 668342584#1 668342584#0 17960546#0 17962377#0 -80239246#1 -80239247#2 -80239247#1 -80239247#0 -80819310#1 -80819310#0 -158901369#10 -158901369#9 -158901369#8 -364204334"/>
    </person>
    <person id="83" type="pedType1" depart="8.30">
        <walk edges="17960131#3 17960131#4 17960131#5 17960131#6 17960131#7 17960131#8 17960131#9 371746586#24 371746586#25 371746586#26 371746586#27 135588109"/>
    </person>
    <person id="84" type="pedType1" depart="8.40">
        <walk edges="53530907#5 -53530907#4 134929396#10 -51508352#8 23885024#0 23885024#1 23885024#2 292377038 31094449#1 31094446#1 292377037 23885110#2 23885152#0 -4262221#0 -851113026#1 -851113026#0 -851115542#1 38906714#1 -154575776#7 -154575776#5 -154575776#4 -4519925#3 -4519927#4 746541912 -870301208"/>
    </person>
    <person id="85" type="pedType1" depart="8.50">
        <walk edges="-682992430 -86414065#1 -86414065#2 -86414065#3 -158901369#10 -158901369#9 -158901369#8 -158901369#7 -158901369#5 -158901369#3 -158901369#1 365057330#1 365057331#1 365057331#0 540351562#1 540351564#8 218848675#0"/>
    </person>
    <person id="86" type="pedType1" depart="8.60">
        <walk edges="17961457#1 17961570#0 17961570#1 -89699186#4 -89699186#3 -154470151#2 -154470151#1 -154470151#0 -93192033#1 -93192033#0"/>
    </person>
    <person id="87" type="pedType1" depart="8.70">
        <walk edges="-873232190 -155055228#1 78713657#1 352895424 352894103#17 678898007 678898006#0 678898006#1 678898006#2 352253631#5 33126943#3 -83028195#6 -310729848#0 80239245#2 4649342#1 4649342#2 -4649342#3 4649342#4 -4649342#7 -158901369#1 -158901369#3 -158901369#5 -158901369#7 -158901369#8 -158901369#9 -158901369#10 -80819312#1 80819312#0"/>
    </person>
    <person id="88" type="pedType1" depart="8.80">
        <walk edges="214785685#24 365762136 -482117464 151263118#2 -151263118#0 151263120 89840530#0 93192024#2 93192045#0 -93192045#1 -93192045#2 -154470139 -93192027#0 722674006#1 722674004#1 722674008 722674007 370266529 -4645400#0 -4645400#1 -4645400#2 -4645400#3 -4645400#4 -392069505 -53530907#7 -53530907#6 53530907#5"/>
    </person>
    <person id="89" type="pedType1" depart="8.90">
        <walk edges="258777072 224088739 392450646 224088745#0 258777113#0 290661436 17958696#1 17961150 759006518 17960131#6 17960131#5 17960131#4 17960131#3 17960131#2 275157011#0 275157011#1 668342584#1 668342584#0 17960546#0 17962377#0 -80239246#1 -80239247#2 -80239247#1 -80239247#0 -80819310#1 -80819310#0 -158901369#10 -158901369#9 -158901369#8 -158901369#7 -158901369#5"/>
    </person>
    <person id="90" type="pedType1" depart="9.00">
        <walk edges="93195854#3 -93195854#2 -93195854#1 -93195854#0 -154470138#5 -154470138#4 -154470138#3 -154470138#2 89840543 -4075783#2 -4075783#0 30603896#0 352272295#0 352272287#0 476046529"/>
    </person>
    <person id="91" type="pedType1" depart="9.10">
        <walk edges="506111201#0 722674004#1 52532308 506111205 371895699 -154470138#4 -154470138#3 -154470146#3 -154470146#2 -154470146#1 -154470146#0 -154470149#0 154470149#1 -89699198#0 -310729848#0 80239245#2 4649342#1 4649342#2 -4649342#3 4649342#4 -4649342#7"/>
    </person>
    <person id="92" type="pedType1" depart="9.20">