<?xml version="1.0" encoding="UTF-8"?>
<!-- generated on 2021-08-10 17:16:13.873040 by $Id$ v1_9_2+0043-66864b7fc8
  options: <doubleminus>configuration-file cfg.xml
-->
<routes xmlns:xsi="http://www.w3.org/2001/XMLSchema-instance" xsi:noNamespaceSchemaLocation="http://sumo.dlr.de/xsd/routes_file.xsd">
    <person id="0" depart="0.00" type="pedType1">
        <walk from="31094450#2" to="-154470144#1"/>
    </person>
    <person id="1" depart="0.10" type="pedType1">
        <walk from="-93072396#4" to="-80819312#1"/>
    </person>
    <person id="2" depart="0.20" type="pedType1">
        <walk from="371746586#25" to="352253631#2"/>
    </person>
    <person id="3" depart="0.30" type="pedType1">
        <walk from="737289076" to="-306248075"/>
    </person>
    <person id="4" depart="0.40" type="pedType1">
        <walk from="17961457#1" to="-154470149#1"/>
    </person>
    <person id="5" depart="0.50" type="pedType1">
        <walk from="-154470146#1" to="-78713657#1"/>
    </person>
    <person id="6" depart="0.60" type="pedType1">
        <walk from="32972691#2" to="255440594#1"/>
    </person>
    <person id="7" depart="0.70" type="pedType1">
        <walk from="-80819310#1" to="275157011#2"/>
    </person>
    <person id="8" depart="0.80" type="pedType1">
        <walk from="455427398" to="-113619165#0"/>
    </person>
    <person id="9" depart="0.90" type="pedType1">
        <walk from="4519927#4" to="352272295#3"/>
    </person>
    <person id="10" depart="1.00" type="pedType1">
        <walk from="89699186#3" to="134929396#9"/>
    </person>
    <person id="11" depart="1.10" type="pedType1">
        <walk from="506111187" to="292377037"/>
    </person>
    <person id="12" depart="1.20" type="pedType1">
        <walk from="252381354" to="89840550#4"/>
    </person>
    <person id="13" depart="1.30" type="pedType1">
        <walk from="155055228#2" to="258777076"/>
    </person>
    <person id="14" depart="1.40" type="pedType1">
        <walk from="4649342#7" to="30603896#0"/>
    </person>
    <person id="15" depart="1.50" type="pedType1">
        <walk from="53530907#5" to="258777116#0"/>
    </person>
    <person id="16" depart="1.60" type="pedType1">
        <walk from="352894103#18" to="-155603789#5"/>
    </person>
    <person id="17" depart="1.70" type="pedType1">
        <walk from="-83028195#1" to="-93195854#1"/>
    </person>
    <person id="18" depart="1.80" type="pedType1">
        <walk from="-287522834#2" to="-83028196#2"/>
    </person>
    <person id="19" depart="1.90" type="pedType1">
        <walk from="-365762132#0" to="-93192027#0"/>
    </person>
    <person id="20" depart="2.00" type="pedType1">
        <walk from="31094449#2" to="154470149#0"/>
    </person>
    <person id="21" depart="2.10" type="pedType1">
        <walk from="154575774#1" to="-80239246#2"/>
    </person>
    <person id="22" depart="2.20" type="pedType1">
        <walk from="-89840550#4" to="84632631"/>
    </person>
    <person id="23" depart="2.30" type="pedType1">
        <walk from="32972691#0" to="300559210"/>
    </person>
    <person id="24" depart="2.40" type="pedType1">
        <walk from="-480885710" to="371746586#16"/>
    </person>
    <person id="25" depart="2.50" type="pedType1">
        <walk from="-4649342#10" to="155055228#3"/>
    </person>
    <person id="26" depart="2.60" type="pedType1">
        <walk from="93192037#1" to="31344436#1"/>
    </person>
    <person id="27" depart="2.70" type="pedType1">
        <walk from="258777082" to="352272283#5"/>
    </person>
    <person id="28" depart="2.80" type="pedType1">
        <walk from="482117466#2" to="4262221#1"/>
    </person>
    <person id="29" depart="2.90" type="pedType1">
        <walk from="-83028195#3" to="-154470151#2"/>
    </person>
    <person id="30" depart="3.00" type="pedType1">
        <walk from="114256584#1" to="-89840550#5"/>
    </person>
    <person id="31" depart="3.10" type="pedType1">
        <walk from="-80239246#5" to="851166560#1"/>
    </person>
    <person id="32" depart="3.20" type="pedType1">
        <walk from="668342584#0" to="113619165#1"/>
    </person>
    <person id="33" depart="3.30" type="pedType1">
        <walk from="33126943#5" to="17958696#1"/>
    </person>
    <person id="34" depart="3.40" type="pedType1">
        <walk from="80239247#0" to="224086893#1"/>
    </person>
    <person id="35" depart="3.50" type="pedType1">
        <walk from="-89840550#1" to="-86414065#2"/>
    </person>
    <person id="36" depart="3.60" type="pedType1">
        <walk from="275157010#0" to="779277889"/>
    </person>
    <person id="37" depart="3.70" type="pedType1">
        <walk from="17960131#0" to="-80819305"/>
    </person>
    <person id="38" depart="3.80" type="pedType1">
        <walk from="93195854#0" to="240394032#1"/>
    </person>
    <person id="39" depart="3.90" type="pedType1">
        <walk from="-31344436#2" to="-155603789#6"/>
    </person>
    <person id="40" depart="4.00" type="pedType1">
        <walk from="-392069505" to="31094446#2"/>
    </person>
    <person id="41" depart="4.10" type="pedType1">
        <walk from="449741714#0" to="17961457#2"/>
    </person>
    <person id="42" depart="4.20" type="pedType1">
        <walk from="-235974276" to="155603782#1"/>
    </person>
    <person id="43" depart="4.30" type="pedType1">
        <walk from="93192045#2" to="244582807"/>
    </person>
    <person id="44" depart="4.40" type="pedType1">
        <walk from="89840550#2" to="53530907#4"/>
    </person>
    <person id="45" depart="4.50" type="pedType1">
        <walk from="-151263118#2" to="365762136"/>
    </person>
    <person id="46" depart="4.60" type="pedType1">
        <walk from="352253631#8" to="252381355"/>
    </person>
    <person id="47" depart="4.70" type="pedType1">
        <walk from="-89840550#4" to="31344436#2"/>
    </person>
    <person id="48" depart="4.80" type="pedType1">
        <walk from="-392104943#3" to="214785685#13"/>
    </person>
    <person id="49" depart="4.90" type="pedType1">
        <walk from="218848676#10" to="86414065#3"/>
    </person>
    <person id="50" depart="5.00" type="pedType1">
        <walk from="668342584#0" to="-89840548#6"/>
    </person>
    <person id="51" depart="5.10" type="pedType1">
        <walk from="23885110#4" to="-51508352#10"/>
    </person>
    <person id="52" depart="5.20" type="pedType1">
        <walk from="80239246#7" to="540351564#8"/>
    </person>
    <person id="53" depart="5.30" type="pedType1">
        <walk from="100321826#0" to="31094450#1"/>
    </person>
    <person id="54" depart="5.40" type="pedType1">
        <walk from="394617671" to="255404785"/>
    </person>
    <person id="55" depart="5.50" type="pedType1">
        <walk from="4262222#1" to="244582812#1"/>
    </person>
    <person id="56" depart="5.60" type="pedType1">
        <walk from="-108719346" to="134034972#0"/>
    </person>
    <person id="57" depart="5.70" type="pedType1">
        <walk from="-154470138#1" to="83028195#3"/>
    </person>
    <person id="58" depart="5.80" type="pedType1">
        <walk from="678898006#0" to="4649467#1"/>
    </person>
    <person id="59" depart="5.90" type="pedType1">
        <walk from="109067914#2" to="-224086893#2"/>
    </person>
    <person id="60" depart="6.00" type="pedType1">
        <walk from="-302309733" to="23856918"/>
    </person>
    <person id="61" depart="6.10" type="pedType1">
        <walk from="-242860952" to="392450645"/>
    </person>
    <person id="62" depart="6.20" type="pedType1">
        <walk from="4071766#2" to="-4262222#0"/>
    </person>
    <person id="63" depart="6.30" type="pedType1">
        <walk from="224088743#2" to="258777072"/>
    </person>
    <person id="64" depart="6.40" type="pedType1">
        <walk from="-89840550#2" to="540351572"/>
    </person>
    <person id="65" depart="6.50" type="pedType1">
        <walk from="17961457#3" to="-80239246#7"/>
    </person>
    <person id="66" depart="6.60" type="pedType1">
        <walk from="255404785" to="371746586#17"/>
    </person>
    <person id="67" depart="6.70" type="pedType1">
        <walk from="-78726719#0" to="112071295#10"/>
    </person>
    <person id="68" depart="6.80" type="pedType1">
        <walk from="93192045#1" to="32972691#2"/>
    </person>
    <person id="69" depart="6.90" type="pedType1">
        <walk from="214785685#17" to="241935344"/>
    </person>
    <person id="70" depart="7.00" type="pedType1">
        <walk from="-4075783#2" to="-817170346#2"/>
    </person>
    <person id="71" depart="7.10" type="pedType1">
        <walk from="135588108#0" to="275157011#1"/>
    </person>
    <person id="72" depart="7.20" type="pedType1">
        <walk from="-83028195#7" to="-80819310#0"/>
    </person>
    <person id="73" depart="7.30" type="pedType1">
        <walk from="-83028195#3" to="80239244#0"/>
    </person>
    <person id="74" depart="7.40" type="pedType1">
        <walk from="-851113026#1" to="352253625"/>
    </person>
    <person id="75" depart="7.50" type="pedType1">
        <walk from="-80239247#1" to="-4427964#0"/>
    </person>
    <person id="76" depart="7.60" type="pedType1">
        <walk from="83028196#7" to="258777111#0"/>
    </person>
    <person id="77" depart="7.70" type="pedType1">
        <walk from="224088741" to="449741691"/>
    </person>
    <person id="78" depart="7.80" type="pedType1">
        <walk from="4519927#7" to="-682992435"/>
    </person>
    <person id="79" depart="7.90" type="pedType1">
        <walk from="-340308606" to="17962377#2"/>
    </person>
    <person id="80" depart="8.00" type="pedType1">
        <walk from="17961457#4" to="224088734#0"/>
    </person>
    <person id="81" depart="8.10" type="pedType1">
        <walk from="371746586#16" to="352253630#1"/>
    </person>
    <person id="82" depart="8.20" type="pedType1">
        <walk from="93192024#0" to="-364204334"/>
    </person>
    <person id="83" depart="8.30" type="pedType1">
        <walk from="17960131#3" to="135588109"/>
    </person>
    <person id="84" depart="8.40" type="pedType1">
        <walk from="53530907#5" to="-870301208"/>
    </person>
    <person id="85" depart="8.50" type="pedType1">
        <walk from="-682992430" to="218848675#0"/>
    </person>
    <person id="86" depart="8.60" type="pedType1">
        <walk from="17961457#1" to="-93192033#0"/>
    </person>
    <person id="87" depart="8.70" type="pedType1">
        <walk from="-873232190" to="80819312#0"/>
    </person>
    <person id="88" depart="8.80" type="pedType1">
        <walk from="214785685#24" to="53530907#5"/>
    </person>
    <person id="89" depart="8.90" type="pedType1">
        <walk from="258777072" to="-158901369#5"/>
    </person>
    <person id="90" depart="9.00" type="pedType1">
        <walk from="93195854#3" to="476046529"/>
    </person>
    <person id="91" depart="9.10" type="pedType1">
        <walk from="506111201#0" to="-4649342#7"/>
    </person>
    <person id="92" depart="9.20" type="pedType1">
        <walk from="23856918" to="-80239247#0"/>
    </person>
    <person id="93" depart="9.30" type="pedType1">
        <walk from="17960131#10" to="-224086894"/>
    </person>
    <person id="94" depart="9.40" type="pedType1">
        <walk from="155055228#3" to="93192024#1"/>
    </person>
    <person id="95" depart="9.50" type="pedType1">
        <walk from="-89840550#2" to="4427964#2"/>
    </person>
    <person id="96" depart="9.60" type="pedType1">
        <walk from="218848676#11" to="17961457#3"/>
    </person>
    <person id="97" depart="9.70" type="pedType1">
        <walk from="89699186#3" to="93192045#1"/>
    </person>
    <person id="98" depart="9.80" type="pedType1">
        <walk from="258777080#1" to="365762132#1"/>
    </person>
    <person id="99" depart="9.90" type="pedType1">
        <walk from="-4645400#3" to="100024679#0"/>
    </person>
    <person id="100" depart="10.00" type="pedType1">
        <walk from="89840548#6" to="258777117#0"/>
    </person>
    <person id="101" depart="10.10" type="pedType1">
        <walk from="-224086893#1" to="275157009"/>
    </person>
    <person id="102" depart="10.20" type="pedType1">
        <walk from="23885110#7" to="51508352#12"/>
    </person>
    <person id="103" depart="10.30" type="pedType1">
        <walk from="-4649336#1" to="89699200#1"/>
    </person>
    <person id="104" depart="10.40" type="pedType1">
        <walk from="-287522834#2" to="-53530907#4"/>
    </person>
    <person id="105" depart="10.50" type="pedType1">
        <walk from="278382358" to="352253630#3"/>
    </person>
    <person id="106" depart="10.60" type="pedType1">
        <walk from="-83028196#7" to="-4075783#0"/>
    </person>
    <person id="107" depart="10.70" type="pedType1">
        <walk from="722674007" to="-86414065#1"/>
    </person>
    <person id="108" depart="10.80" type="pedType1">
        <walk from="278382358" to="306248074#1"/>
    </person>
    <person id="109" depart="10.90" type="pedType1">
        <walk from="17961303#1" to="275157008"/>
    </person>
    <person id="110" depart="11.00" type="pedType1">
        <walk from="244390907#0" to="83028196#6"/>
    </person>
    <person id="111" depart="11.10" type="pedType1">
        <walk from="-80239244#0" to="365057331#1"/>
    </person>
    <person id="112" depart="11.20" type="pedType1">
        <walk from="-851115542#1" to="17958696#1"/>
    </person>
    <person id="113" depart="11.30" type="pedType1">
        <walk from="352253629" to="100321826#1"/>
    </person>
    <person id="114" depart="11.40" type="pedType1">
        <walk from="-243544435#1" to="218852516#4"/>
    </person>
    <person id="115" depart="11.50" type="pedType1">
        <walk from="93195854#2" to="93192045#2"/>
    </person>
    <person id="116" depart="11.60" type="pedType1">
        <walk from="-243544436" to="-80239247#0"/>
    </person>
    <person id="117" depart="11.70" type="pedType1">
        <walk from="-89840550#2" to="83028196#2"/>
    </person>
    <person id="118" depart="11.80" type="pedType1">
        <walk from="154575767#1" to="-4649336#2"/>
    </person>
    <person id="119" depart="11.90" type="pedType1">
        <walk from="469683848" to="352894103#17"/>
    </person>
    <person id="120" depart="12.00" type="pedType1">
        <walk from="300954442" to="93192033#0"/>
    </person>
    <person id="121" depart="12.10" type="pedType1">
        <walk from="33126943#2" to="-124421327"/>
    </person>
    <person id="122" depart="12.20" type="pedType1">
        <walk from="4645400#2" to="100321826#1"/>
    </person>
    <person id="123" depart="12.30" type="pedType1">
        <walk from="34160676#1" to="851113026#0"/>
    </person>
    <person id="124" depart="12.40" type="pedType1">
        <walk from="-370708109#2" to="258777077"/>
    </person>
    <person id="125" depart="12.50" type="pedType1">
        <walk from="-93066994#4" to="292377038"/>
    </person>
    <person id="126" depart="12.60" type="pedType1">
        <walk from="365381866" to="-794415975#1"/>
    </person>
    <person id="127" depart="12.70" type="pedType1">
        <walk from="31094449#1" to="-89840550#0"/>
    </person>
    <person id="128" depart="12.80" type="pedType1">
        <walk from="23885024#2" to="80239244#0"/>
    </person>
    <person id="129" depart="12.90" type="pedType1">
        <walk from="50220178#5" to="-32972691#0"/>
    </person>
    <person id="130" depart="13.00" type="pedType1">
        <walk from="17961457#3" to="-93072401#1"/>
    </person>
    <person id="131" depart="13.10" type="pedType1">
        <walk from="-112071295#10" to="410655508#1"/>
    </person>
    <person id="132" depart="13.20" type="pedType1">
        <walk from="31094449#4" to="-89840548#5"/>
    </person>
    <person id="133" depart="13.30" type="pedType1">
        <walk from="37567985#1" to="258777075"/>
    </person>
    <person id="134" depart="13.40" type="pedType1">
        <walk from="17961665" to="-134034995"/>
    </person>
    <person id="135" depart="13.50" type="pedType1">
        <walk from="-245200567" to="682992432"/>
    </person>
    <person id="136" depart="13.60" type="pedType1">
        <walk from="793129302" to="255512463"/>
    </person>
    <person id="137" depart="13.70" type="pedType1">
        <walk from="470063077" to="275157007"/>
    </person>
    <person id="138" depart="13.80" type="pedType1">
        <walk from="-4519927#5" to="-4262221#2"/>
    </person>
    <person id="139" depart="13.90" type="pedType1">
        <walk from="109067914#3" to="78713657#1"/>
    </person>
    <person id="140" depart="14.00" type="pedType1">
        <walk from="4498577#1" to="53530907#4"/>
    </person>
    <person id="141" depart="14.10" type="pedType1">
        <walk from="78713657#1" to="-80239246#4"/>
    </person>
    <person id="142" depart="14.20" type="pedType1">
        <walk from="-870301209" to="-365762132#2"/>
    </person>
    <person id="143" depart="14.30" type="pedType1">
        <walk from="4262225#2" to="682992439"/>
    </person>
    <person id="144" depart="14.40" type="pedType1">
        <walk from="17960131#7" to="30816863#0"/>
    </person>
    <person id="145" depart="14.50" type="pedType1">
        <walk from="-4645400#3" to="83028195#6"/>
    </person>
    <person id="146" depart="14.60" type="pedType1">
        <walk from="540351562#0" to="93066994#3"/>
    </person>
    <person id="147" depart="14.70" type="pedType1">
        <walk from="457080607#0" to="682508604#0"/>
    </person>
    <person id="148" depart="14.80" type="pedType1">
        <walk from="-154470144#1" to="371746586#25"/>
    </person>
    <person id="149" depart="14.90" type="pedType1">
        <walk from="134929396#10" to="83028195#7"/>
    </person>
    <person id="150" depart="15.00" type="pedType1">
        <walk from="4519925#2" to="540351559"/>
    </person>
    <person id="151" depart="15.10" type="pedType1">
        <walk from="457080607#0" to="-89840550#4"/>
    </person>
    <person id="152" depart="15.20" type="pedType1">
        <walk from="449741699" to="-37758669#1"/>
    </person>
    <person id="153" depart="15.30" type="pedType1">
        <walk from="540351567#1" to="533368699"/>
    </person>
    <person id="154" depart="15.40" type="pedType1">
        <walk from="224086893#3" to="108719360"/>
    </person>
    <person id="155" depart="15.50" type="pedType1">
        <walk from="449741724#1" to="-83028195#0"/>
    </person>
    <person id="156" depart="15.60" type="pedType1">
        <walk from="-154470141" to="-71360468#2"/>
    </person>
    <person id="157" depart="15.70" type="pedType1">
        <walk from="134034977#2" to="540351562#0"/>
    </person>
    <person id="158" depart="15.80" type="pedType1">
        <walk from="89840548#2" to="-93192033#1"/>
    </person>
    <person id="159" depart="15.90" type="pedType1">
        <walk from="316273519#0" to="17960131#0"/>
    </person>
    <person id="160" depart="16.00" type="pedType1">
        <walk from="93072401#0" to="252381354"/>
    </person>
    <person id="161" depart="16.10" type="pedType1">
        <walk from="851113026#1" to="-405595046#0"/>
    </person>
    <person id="162" depart="16.20" type="pedType1">
        <walk from="89840550#1" to="-51508352#10"/>
    </person>
    <person id="163" depart="16.30" type="pedType1">
        <walk from="89840530#2" to="-89840550#2"/>
    </person>
    <person id="164" depart="16.40" type="pedType1">
        <walk from="371746586#16" to="112071295#12"/>
    </person>
    <person id="165" depart="16.50" type="pedType1">
        <walk from="292377040" to="240819561"/>
    </person>
    <person id="166" depart="16.60" type="pedType1">
        <walk from="155603789#6" to="258777114#1"/>
    </person>
    <person id="167" depart="16.70" type="pedType1">
        <walk from="-89699186#5" to="352895425#21"/>
    </person>
    <person id="168" depart="16.80" type="pedType1">
        <walk from="-108719354" to="817170346#2"/>
    </person>
    <person id="169" depart="16.90" type="pedType1">
        <walk from="252381357" to="365762132#2"/>
    </person>
    <person id="170" depart="17.00" type="pedType1">
        <walk from="37758669#1" to="352253627"/>
    </person>
    <person id="171" depart="17.10" type="pedType1">
        <walk from="154470146#3" to="-242860956"/>
    </person>
    <person id="172" depart="17.20" type="pedType1">
        <walk from="349842163" to="134034990#1"/>
    </person>
    <person id="173" depart="17.30" type="pedType1">
        <walk from="113619165#0" to="506111201#0"/>
    </person>
    <person id="174" depart="17.40" type="pedType1">
        <walk from="365762133" to="100321826#2"/>
    </person>
    <person id="175" depart="17.50" type="pedType1">
        <walk from="110536981#0" to="17960546#0"/>
    </person>
    <person id="176" depart="17.60" type="pedType1">
        <walk from="17960131#2" to="100024669#1"/>
    </person>
    <person id="177" depart="17.70" type="pedType1">
        <walk from="-4262221#2" to="17961457#0"/>
    </person>
    <person id="178" depart="17.80" type="pedType1">
        <walk from="851115542#1" to="352253631#3"/>
    </person>
    <person id="179" depart="17.90" type="pedType1">
        <walk from="78726719#1" to="300962780#1"/>
    </person>
    <person id="180" depart="18.00" type="pedType1">
        <walk from="10067428#0" to="258777069"/>
    </person>
    <person id="181" depart="18.10" type="pedType1">
        <walk from="-108719346" to="-93192045#1"/>
    </person>
    <person id="182" depart="18.20" type="pedType1">
        <walk from="17962377#0" to="258777117#1"/>
    </person>
    <person id="183" depart="18.30" type="pedType1">
        <walk from="33126943#3" to="224088724"/>
    </person>
    <person id="184" depart="18.40" type="pedType1">
        <walk from="214785685#22" to="-80239247#0"/>
    </person>
    <person id="185" depart="18.50" type="pedType1">
        <walk from="4498577#1" to="-4649467#3"/>
    </person>
    <person id="186" depart="18.60" type="pedType1">
        <walk from="-300962787" to="241935342"/>
    </person>
    <person id="187" depart="18.70" type="pedType1">
        <walk from="31094447#3" to="134929396#14"/>
    </person>
    <person id="188" depart="18.80" type="pedType1">
        <walk from="352253630#0" to="-817170346#2"/>
    </person>
    <person id="189" depart="18.90" type="pedType1">
        <walk from="-78713657#1" to="-154470144#1"/>
    </person>
    <person id="190" depart="19.00" type="pedType1">
        <walk from="-86414065#0" to="224088743#2"/>
    </person>
    <person id="191" depart="19.10" type="pedType1">
        <walk from="17961106#2" to="31094446#5"/>
    </person>
    <person id="192" depart="19.20" type="pedType1">
        <walk from="-71360468#4" to="352272295#1"/>
    </person>
    <person id="193" depart="19.30" type="pedType1">
        <walk from="33126943#5" to="-112071295#13"/>
    </person>
    <person id="194" depart="19.40" type="pedType1">
        <walk from="392072298" to="410655508#0"/>
    </person>
    <person id="195" depart="19.50" type="pedType1">
        <walk from="-370708109#2" to="17961521"/>
    </person>
    <person id="196" depart="19.60" type="pedType1">
        <walk from="-506111188" to="89699186#4"/>
    </person>
    <person id="197" depart="19.70" type="pedType1">
        <walk from="241935359" to="-158901369#3"/>
    </person>
    <person id="198" depart="19.80" type="pedType1">
        <walk from="218852516#2" to="4519925#1"/>
    </person>
    <person id="199" depart="19.90" type="pedType1">
        <walk from="349842173" to="93192033#1"/>
    </person>
    <person id="200" depart="20.00" type="pedType1">
        <walk from="278399456#0" to="86414056"/>
    </person>
    <person id="201" depart="20.10" type="pedType1">
        <walk from="722674008" to="300954443"/>
    </person>
    <person id="202" depart="20.20" type="pedType1">
        <walk from="4649342#8" to="258777069"/>
    </person>
    <person id="203" depart="20.30" type="pedType1">
        <walk from="761640522" to="378125570"/>
    </person>
    <person id="204" depart="20.40" type="pedType1">
        <walk from="224088743#1" to="-89840533#6"/>
    </person>
    <person id="205" depart="20.50" type="pedType1">
        <walk from="4071766#2" to="243793785"/>
    </person>
    <person id="206" depart="20.60" type="pedType1">
        <walk from="31094446#1" to="-93072396#3"/>
    </person>
    <person id="207" depart="20.70" type="pedType1">
        <walk from="-278382354" to="-93192045#0"/>
    </person>
    <person id="208" depart="20.80" type="pedType1">
        <walk from="-93066994#4" to="122159083#0"/>
    </person>
    <person id="209" depart="20.90" type="pedType1">
        <walk from="-83028196#0" to="352272293#0"/>
    </person>
    <person id="210" depart="21.00" type="pedType1">
        <walk from="352895424" to="-235979100"/>
    </person>
    <person id="211" depart="21.10" type="pedType1">
        <walk from="17960131#9" to="255424631"/>
    </person>
    <person id="212" depart="21.20" type="pedType1">
        <walk from="17961106#4" to="-80239245#1"/>
    </person>
    <person id="213" depart="21.30" type="pedType1">
        <walk from="17961303#2" to="794415975#1"/>
    </person>
    <person id="214" depart="21.40" type="pedType1">
        <walk from="275157009" to="352272295#0"/>
    </person>
    <person id="215" depart="21.50" type="pedType1">
        <walk from="53267456#1" to="4071766#2"/>
    </person>
    <person id="216" depart="21.60" type="pedType1">
        <walk from="155586944#0" to="-113619165#0"/>
    </person>
    <person id="217" depart="21.70" type="pedType1">
        <walk from="152468883#1" to="392072301"/>
    </person>
    <person id="218" depart="21.80" type="pedType1">
        <walk from="17961303#1" to="38906714#1"/>
    </person>
    <person id="219" depart="21.90" type="pedType1">
        <walk from="-80819310#1" to="-80819305"/>
    </person>
    <person id="220" depart="22.00" type="pedType1">
        <walk from="214785685#15" to="-154470149#0"/>
    </person>
    <person id="221" depart="22.10" type="pedType1">
        <walk from="134929396#15" to="352253631#5"/>
    </person>
    <person id="222" depart="22.20" type="pedType1">
        <walk from="17960131#5" to="-4649342#4"/>
    </person>
    <person id="223" depart="22.30" type="pedType1">
        <walk from="224088734#0" to="-4262221#2"/>
    </person>
    <person id="224" depart="22.40" type="pedType1">
        <walk from="30816874#3" to="-154470146#2"/>
    </person>
    <person id="225" depart="22.50" type="pedType1">
        <walk from="173135245#1" to="258777097"/>
    </person>
    <person id="226" depart="22.60" type="pedType1">
        <walk from="-154470146#2" to="316273519#1"/>
    </person>
    <person id="227" depart="22.70" type="pedType1">
        <walk from="-449741707" to="224088700"/>
    </person>
    <person id="228" depart="22.80" type="pedType1">
        <walk from="-158901369#3" to="155055228#3"/>
    </person>
    <person id="229" depart="22.90" type="pedType1">
        <walk from="-80239246#7" to="134034977#1"/>
    </person>
    <person id="230" depart="23.00" type="pedType1">
        <walk from="392450646" to="155055228#3"/>
    </person>
    <person id="231" depart="23.10" type="pedType1">
        <walk from="392072299" to="4649467#2"/>
    </person>
    <person id="232" depart="23.20" type="pedType1">
        <walk from="-89699186#2" to="-300559210"/>
    </person>
    <person id="233" depart="23.30" type="pedType1">
        <walk from="-154470138#1" to="255404785"/>
    </person>
    <person id="234" depart="23.40" type="pedType1">
        <walk from="93195854#3" to="151996170#3"/>
    </person>
    <person id="235" depart="23.50" type="pedType1">
        <walk from="32972706" to="392072302#0"/>
    </person>
    <person id="236" depart="23.60" type="pedType1">
        <walk from="86414056" to="-78713657#2"/>
    </person>
    <person id="237" depart="23.70" type="pedType1">
        <walk from="-154470138#3" to="-4645400#0"/>
    </person>
    <person id="238" depart="23.80" type="pedType1">
        <walk from="-4262221#1" to="352253626"/>
    </person>
    <person id="239" depart="23.90" type="pedType1">
        <walk from="258777095" to="-80737021#4"/>
    </person>
    <person id="240" depart="24.00" type="pedType1">
        <walk from="352272295#5" to="4071768#1"/>
    </person>
    <person id="241" depart="24.10" type="pedType1">
        <walk from="-4649467#1" to="297192147#0"/>
    </person>
    <person id="242" depart="24.20" type="pedType1">
        <walk from="38906714#1" to="-40147288#0"/>
    </person>
    <person id="243" depart="24.30" type="pedType1">
        <walk from="4645400#4" to="89840536"/>
    </person>
    <person id="244" depart="24.40" type="pedType1">
        <walk from="-37758669#1" to="-154470146#0"/>
    </person>
    <person id="245" depart="24.50" type="pedType1">
        <walk from="112071295#10" to="352253631#3"/>
    </person>
    <person id="246" depart="24.60" type="pedType1">
        <walk from="89699186#4" to="17958696#2"/>
    </person>
    <person id="247" depart="24.70" type="pedType1">
        <walk from="365057331#0" to="-252381357"/>
    </person>
    <person id="248" depart="24.80" type="pedType1">
        <walk from="352272290" to="31094446#2"/>
    </person>
    <person id="249" depart="24.90" type="pedType1">
        <walk from="506111205" to="287522834#2"/>
    </person>
    <person id="250" depart="25.00" type="pedType1">
        <walk from="-4075783#2" to="93192024#0"/>
    </person>
    <person id="251" depart="25.10" type="pedType1">
        <walk from="4427964#0" to="151866851#1"/>
    </person>
    <person id="252" depart="25.20" type="pedType1">
        <walk from="17961665" to="154575774#1"/>
    </person>
    <person id="253" depart="25.30" type="pedType1">
        <walk from="23885152#1" to="151263118#0"/>
    </person>