<?xml version="1.0" encoding="UTF-8"?>

<!-- generated on 2023-06-06 09:07:24 by Eclipse SUMO sumo Version 1.12.0
-->

<configuration xmlns:xsi="http://www.w3.org/2001/XMLSchema-instance" xsi:noNamespaceSchemaLocation="http://sumo.dlr.de/xsd/sumoConfiguration.xsd">

    <input>
        <net-file value="osm.net.xml"/>
        <route-files value="osm.rou.xml"/>
    </input>


</configuration>
