<?xml version="1.0" encoding="UTF-8"?>

<routes xmlns:xsi="http://www.w3.org/2001/XMLSchema-instance" xsi:noNamespaceSchemaLocation="http://sumo.dlr.de/xsd/routes_file.xsd">
    
    <person id="1" depart="0.00">
        <walk edges="-e_C_p0 -e_p1_C"/>
    </person>
    
    <person id="2" depart="0.00">
        <walk edges="-e_C_p0 -e_p1_C"/>
    </person>
    
    <person id="3" depart="0.00">
        <walk edges="-e_C_p0 -e_p1_C"/>
    </person>
    
    <vType id="type1" accel="0.8" decel="4.5" sigma="0.5" length="5" maxSpeed="70"/>

    <vehicle id="4" type="type1" depart="18.0" color="1,0,0">
      <route edges="e_v0_C e_C_v1"/>
    </vehicle>
           
    <vehicle id="5" type="type1" depart="60.0" color="1,0,0">
      <route edges="e_v0_C e_C_v1"/>
    </vehicle>
               
</routes>
