<?xml version="1.0" encoding="UTF-8"?>

<!-- generated on 2022-11-25 09:09:46 by Eclipse SUMO polyconvert Version 1.12.0
<configuration xmlns:xsi="http://www.w3.org/2001/XMLSchema-instance" xsi:noNamespaceSchemaLocation="http://sumo.dlr.de/xsd/polyconvertConfiguration.xsd">

    <input>
        <net-file value="osm.net.xml"/>
        <osm-files value="osm_bbox.osm.xml"/>
        <osm.keep-full-type value="true"/>
        <type-file value="/usr/share/sumo/data/typemap/osmPolyconvert.typ.xml"/>
    </input>

    <output>
        <output-file value="osm.poly.xml"/>
    </output>

    <processing>
        <poi-layer-offset value="5"/>
    </processing>

    <report>
        <verbose value="true"/>
    </report>

</configuration>
-->

<additional xmlns:xsi="http://www.w3.org/2001/XMLSchema-instance" xsi:noNamespaceSchemaLocation="http://sumo.dlr.de/xsd/additional_file.xsd">
    <location netOffset="-689929.91,-5336518.24" convBoundary="-897.52,-936.51,1481.23,803.48" origBoundary="11.541337,48.145375,11.573934,48.160699" projParameter="+proj=utm +zone=32 +ellps=WGS84 +datum=WGS84 +units=m +no_defs"/>

    <poly id="153191829" type="amenity.bicycle_parking" color="237,199,199" fill="1" layer="-1.00" shape="179.899984,172.656586 178.420623,171.250016 201.004252,147.624150 202.483614,149.030726 179.899984,172.656586"/>
    <poly id="153191830" type="amenity.motorcycle_parking" color="237,199,199" fill="1" layer="-1.00" shape="158.280525,197.516194 156.330001,195.726803 172.601204,178.121465 174.551731,179.910861 158.280525,197.516194"/>
    <poly id="153191831" type="amenity.bicycle_parking" color="237,199,199" fill="1" layer="-1.00" shape="137.129300,149.193700 135.457315,147.758485 152.656567,127.992130 154.328184,129.438464 137.129300,149.193700"/>
    <poly id="163981252" type="man_made.pipeline" color="255,230,230" fill="0" layer="-1.00" shape="-897.524961,-936.507427 -632.293355,-276.725434 16.195918,102.016237 151.470820,227.452243 319.692646,374.015165"/>
    <poly id="163981253" type="man_made.pipeline" color="255,230,230" fill="0" layer="-1.00" shape="120.445824,249.729508 151.470820,227.452243"/>
    <poly id="259759830" type="landuse.residential" color="235,235,227" fill="0" layer="-3.00" shape="1357.552848,117.373560 1401.663966,201.872940 1446.392027,328.160872 1451.653795,371.562042 1456.934628,432.621026 1467.544588,439.240320 1473.215888,445.060057 1481.225979,509.526077 1401.860996,527.574412 1328.383533,551.895689 1277.872840,566.182730 1234.073656,578.569595 1144.465470,613.157075 1125.204644,620.590719 1101.559889,633.796971 1040.339021,648.963048 1038.762654,649.355418 906.158730,677.302978 676.790656,719.582390 549.356715,740.389511 514.533501,577.779278 505.110670,526.574893 457.976035,484.505904 335.427491,374.761448 245.314514,292.623340 167.639114,214.505256 215.624885,163.308569 248.420577,133.035475 292.703475,103.890249 404.587470,59.917461 403.305244,54.156005 530.838171,5.777826 514.505521,-81.415671 517.717335,-84.635345 510.195570,-123.003622 331.121808,-269.109263 351.802027,-288.047207 389.129811,-330.240514 370.961863,-361.285991 362.591137,-384.706661 375.645497,-551.651398 395.647141,-639.192377 413.826815,-671.542340 453.768655,-674.763029 741.206518,-778.436470 790.164026,-796.986279 812.081914,-757.391949 816.442976,-745.942421 817.223057,-743.435293 822.869643,-728.560560 823.896662,-725.867176 864.393770,-622.979781 954.211679,-656.886926 1042.467736,-690.588993 1069.032810,-627.239952 872.850465,-551.535442 885.651150,-525.930011 1021.213279,-181.536298 1214.179625,-256.875374 1229.460375,-218.891782 1279.669065,-86.392062"/>
    <poly id="37338539" type="amenity.university" color="237,199,199" fill="1" layer="-2.00" shape="67.305257,201.856889 66.455170,203.019110 56.841116,194.154817 53.952280,191.477577 42.525221,180.939788 39.988194,178.652531 38.790695,177.500138 37.761351,178.456138 27.650650,170.420966 28.658275,168.774433 6.875544,149.503620 3.504614,152.595884 -8.690042,142.077207 5.142747,127.717059 10.845745,132.857609 16.411874,137.860105 15.654031,139.158911 37.385313,157.738237 50.980301,142.024051 71.466265,160.662258 90.716314,178.180243 77.628246,192.976607 98.091159,211.180249 100.353179,208.974627 107.930978,215.490477 113.873236,220.594592 99.249393,236.129788 87.169222,225.536808 89.897314,222.523356 67.305257,201.856889"/>
    <poly id="37338539#1" type="building.college" color="255,230,230" fill="1" layer="-1.00" shape="67.305257,201.856889 66.455170,203.019110 56.841116,194.154817 53.952280,191.477577 42.525221,180.939788 39.988194,178.652531 38.790695,177.500138 37.761351,178.456138 27.650650,170.420966 28.658275,168.774433 6.875544,149.503620 3.504614,152.595884 -8.690042,142.077207 5.142747,127.717059 10.845745,132.857609 16.411874,137.860105 15.654031,139.158911 37.385313,157.738237 50.980301,142.024051 71.466265,160.662258 90.716314,178.180243 77.628246,192.976607 98.091159,211.180249 100.353179,208.974627 107.930978,215.490477 113.873236,220.594592 99.249393,236.129788 87.169222,225.536808 89.897314,222.523356 67.305257,201.856889"/>
    <poly id="37338826" type="amenity.parking" color="184,184,179" fill="1" layer="-1.00" shape="162.712433,204.383667 160.790666,199.491085 180.582743,176.973920 202.408262,153.534240 205.217922,150.757195 209.459183,146.570270 220.445565,136.332673 231.758408,125.905689 240.988889,118.324452 250.892044,110.887995 262.176105,103.119216 274.035516,95.959280 283.762817,90.230425 294.571097,84.904715 294.401709,89.994779 274.639498,100.852557 252.037054,115.854899 233.868931,130.270528 211.893090,150.389559 205.193443,156.864541 182.602937,181.369113 162.712433,204.383667"/>
    <poly id="37693940" type="building.dormitory" color="255,230,230" fill="1" layer="-1.00" shape="92.423559,100.622289 101.600594,108.303880 119.548495,123.342079 124.654826,127.617337 121.507002,131.161993 108.658889,145.676999 82.848572,123.724143 79.380727,120.771749 85.934345,113.535206 79.089308,107.366406 65.976601,122.228740 76.302501,131.405978 110.128645,161.480228 141.603414,125.688665 100.260713,91.503638 92.423559,100.622289"/>
    <poly id="450396619" type="amenity.university" color="237,199,199" fill="1" layer="-2.00" shape="266.899811,107.704529 298.189017,89.609019 309.184160,85.379902 339.802409,73.359318 338.319441,66.022433 333.701865,62.275043 286.239510,22.066065 239.208053,-18.806828 238.689465,-18.212151 223.348599,-0.620518 195.374504,-25.349449 205.056573,-36.654060 203.074381,-38.388885 189.326993,-50.127849 186.221308,-52.778984 186.035436,-52.562647 181.790652,-56.108362 165.394607,-36.782644 149.035780,-50.366249 143.870171,-54.654616 21.544837,83.535759 65.976601,122.228740 79.089308,107.366406 92.423559,100.622289 100.260713,91.503638 141.603414,125.688665 110.128645,161.480228 109.900986,164.521174 159.529791,208.527946 234.258339,130.873160 266.899811,107.704529"/>
    <poly id="460360309" type="landuse.commercial" color="209,209,204" fill="1" layer="-3.00" shape="154.469233,231.757572 89.864534,290.913566 -10.237976,413.832800 -71.195021,491.925596 49.926979,592.534857 93.290557,634.563996 46.847587,689.428677 43.333965,709.138357 156.700179,803.484469 247.965055,697.775347 260.267202,699.197196 309.665983,641.472999 318.443575,648.819064 331.333670,634.595223 352.941044,652.559882 393.286362,605.427276 396.582817,606.582896 407.435495,575.535595 430.362673,547.393809 421.891113,533.092886 437.260852,508.804919 451.705271,491.962845 457.976035,484.505904 335.427491,374.761448 245.314514,292.623340 154.469233,231.757572"/>
    <poly id="748797545" type="amenity.university" color="237,199,199" fill="1" layer="-2.00" shape="89.864534,290.913566 142.010275,219.349467 5.889820,103.665324 -112.579555,203.056672 -84.541977,228.787541 -25.195616,283.718459 18.195344,233.168663 89.864534,290.913566"/>
    <poly id="819579461" type="natural.tree_row" color="140,196,107" fill="0" layer="-4.00" shape="100.480132,185.002396 141.343622,223.054499 96.124133,277.737130"/>
    <poly id="819579462" type="natural.tree_row" color="140,196,107" fill="0" layer="-4.00" shape="161.638747,231.072543 272.217676,325.094063"/>
    <poly id="819579509" type="natural.tree_row" color="140,196,107" fill="0" layer="-4.00" shape="160.790666,199.491085 205.217922,150.757195 246.175042,116.394183 294.571097,84.904715 374.488436,51.638934"/>
    <poly id="97390347" type="building.university" color="255,230,230" fill="1" layer="-1.00" shape="131.694124,171.153650 147.761841,182.502373 152.072931,176.437442 158.976716,166.731534 142.901906,155.371420 139.207850,160.566798 138.676677,161.316827 131.694124,171.153650"/>
    <poly id="97391055" type="building.apartments" color="255,230,230" fill="1" layer="-1.00" shape="266.959479,239.705172 261.358540,246.049757 243.921250,265.807871 241.759561,263.877911 230.979733,254.262454 220.315891,244.739885 185.749275,213.905973 203.122199,194.290182 215.204691,180.639988 225.805573,192.730545 234.993505,184.858614 229.176282,178.011750 216.168565,163.749441 207.351269,173.235872 194.708469,186.945327 178.391076,204.371054 168.748278,214.731286 182.656814,226.753751 196.072932,238.359339 213.075304,252.932511 224.750882,262.700117 237.963874,274.588333 245.605402,281.195508 253.645179,271.805656 263.636946,260.133182 269.670907,253.079820 275.549871,246.210447 282.032917,238.637993 278.951441,235.041891 273.391084,239.718918 266.959479,239.705172"/>
    <poly id="97399424" type="building.university" color="255,230,230" fill="1" layer="-1.00" shape="227.102229,87.288291 225.126470,87.823367 222.514830,88.003513 220.766063,87.533679 219.170832,86.924314 217.645443,86.005747 216.278439,85.025692 214.482207,83.297046 213.483201,81.772935 212.732512,79.945556 212.353605,77.908025 212.371135,76.261964 212.554899,74.766070 213.021619,73.268462 213.577208,71.784937 214.442912,70.378482 216.211718,68.679416 217.801438,67.664203 219.854482,66.820167 219.023626,63.821894 218.869962,63.293861 218.637411,62.451678 226.393845,53.753286 242.758170,63.576747 253.913000,48.282487 241.467001,36.820321 245.043883,32.466675 248.620771,28.113032 262.787824,40.878586 261.965860,41.641182 281.608504,57.426098 280.371285,58.586535 285.925388,65.736217 286.607988,65.358396 287.957944,64.613373 296.127343,71.249292 300.317437,69.274795 323.711378,58.237569 261.948886,14.181701 259.783817,16.601886 259.360219,16.131627 259.507635,15.057312 259.373200,13.951367 258.909708,12.890104 258.031286,11.993052 258.009468,10.634957 246.118216,-0.497230 245.249327,-0.114476 235.373402,-8.943269 222.426550,5.612733 232.767644,14.557113 229.321577,18.559087 225.868078,22.560815 224.006050,21.019119 195.450912,34.132532 201.543964,47.241318 200.597763,47.710515 193.837547,51.079355 197.243760,54.541565 177.950043,76.162941 164.855941,90.903300 154.094932,103.095540 144.675995,114.108569 147.503495,116.839444 146.613197,117.866806 157.672648,127.368992 149.467407,136.809106 149.740283,138.453698 148.923378,140.184436 147.391334,141.257214 145.596618,141.497936 130.125906,158.985329 134.405011,160.151200 138.676677,161.316827 139.207850,160.566798 142.901906,155.371420 158.976716,166.731534 152.072931,176.437442 153.246946,177.399939 149.831879,181.369605 154.207434,185.231184 158.622057,189.260955 199.667142,143.507568 214.021925,128.019281 230.162397,113.235736 228.930568,111.325592 229.995291,110.426430 231.067081,109.538630 235.697450,112.006874 239.545077,106.226984 249.842012,98.814750 260.314203,91.953538 284.090567,78.814947 273.851251,64.132842 272.573772,64.713390 271.097978,62.528096 262.991190,66.986901 263.725390,68.190683 262.800387,68.693953 261.790830,68.382213 260.748980,68.369801 259.781166,68.593497 258.935335,68.954764 258.108897,69.628204 257.620101,70.446390 257.372314,71.628625 256.772998,71.964717 255.141568,70.653202 243.382917,77.916665 234.037246,84.259085 227.686679,88.965503 227.102229,87.288291"/>
    <poly id="97467420" type="building.office" color="255,230,230" fill="1" layer="-1.00" shape="130.294766,275.479825 149.649770,253.782487 142.837726,247.748204 150.570397,239.082317 166.276984,253.000324 185.605921,270.143007 177.942745,278.733277 159.835803,262.677100 153.193049,270.133110 156.664131,273.208052 159.842392,269.642178 168.953691,277.722249 155.112102,293.238817 146.354838,285.482067 149.053562,282.456540 145.691438,279.463108 140.873886,284.865892 130.294766,275.479825"/>
    <poi id="10076369821" type="amenity.cafe" color="237,199,199" layer="4.00" x="138.29" y="167.23"/>
    <poi id="10100163638" type="amenity.toilets" color="237,199,199" layer="4.00" x="159.79" y="165.77"/>
    <poi id="4322460013" type="amenity.bicycle_parking" color="237,199,199" layer="4.00" x="130.21" y="177.32"/>
    <poi id="4322460055" type="natural.tree" color="140,196,107" layer="1.00" x="118.79" y="166.86"/>
    <poi id="442006471" type="amenity.parking_entrance" color="237,199,199" layer="4.00" x="154.21" y="185.23"/>
    <poi id="4929109732" type="amenity.charging_station" color="237,199,199" layer="4.00" x="134.71" y="191.12"/>
    <poi id="6387618536" type="amenity.charging_station" color="237,199,199" layer="4.00" x="128.16" y="185.07"/>
    <poi id="6387618537" type="amenity.vending_machine" color="237,199,199" layer="4.00" x="123.18" y="178.55"/>
    <poi id="6387618538" type="amenity.vending_machine" color="237,199,199" layer="4.00" x="108.96" y="161.78"/>
    <poi id="8234052775" type="natural.tree" color="140,196,107" layer="1.00" x="151.88" y="232.64"/>
</additional>
