<?xml version="1.0" encoding="UTF-8"?>

<!-- generated on 2022-11-25 09:09:45 by Eclipse SUMO netconvert Version 1.12.0
<configuration xmlns:xsi="http://www.w3.org/2001/XMLSchema-instance" xsi:noNamespaceSchemaLocation="http://sumo.dlr.de/xsd/netconvertConfiguration.xsd">

    <input>
        <type-files value="/usr/share/sumo/data/typemap/osmNetconvert.typ.xml"/>
        <osm-files value="osm_bbox.osm.xml"/>
    </input>

    <output>
        <output-file value="osm.net.xml"/>
        <output.street-names value="true"/>
        <output.original-names value="true"/>
    </output>

    <projection>
        <proj.utm value="true"/>
    </projection>

    <processing>
        <geometry.remove value="true"/>
        <roundabouts.guess value="true"/>
    </processing>

    <tls_building>
        <tls.discard-simple value="true"/>
        <tls.join value="true"/>
        <tls.guess-signals value="true"/>
        <tls.default-type value="actuated"/>
    </tls_building>

    <ramp_guessing>
        <ramps.guess value="true"/>
    </ramp_guessing>

    <junctions>
        <junctions.join value="true"/>
        <junctions.corner-detail value="5"/>
    </junctions>

    <report>
        <verbose value="true"/>
        <aggregate-warnings value="5"/>
    </report>

</configuration>
-->

<net version="1.9" junctionCornerDetail="5" limitTurnSpeed="5.50" xmlns:xsi="http://www.w3.org/2001/XMLSchema-instance" xsi:noNamespaceSchemaLocation="http://sumo.dlr.de/xsd/net_file.xsd">

    <location netOffset="-689929.91,-5336518.24" convBoundary="0.00,0.00,513.91,375.38" origBoundary="11.553855,48.153371,11.560712,48.156876" projParameter="+proj=utm +zone=32 +ellps=WGS84 +datum=WGS84 +units=m +no_defs"/>

    <type id="highway.bridleway" priority="1" numLanes="1" speed="2.78" allow="pedestrian" oneway="1" width="2.00"/>
    <type id="highway.bus_guideway" priority="1" numLanes="1" speed="27.78" allow="bus" oneway="1"/>
    <type id="highway.cycleway" priority="1" numLanes="1" speed="8.33" allow="bicycle" oneway="0" width="1.00"/>
    <type id="highway.footway" priority="1" numLanes="1" speed="2.78" allow="pedestrian" oneway="1" width="2.00"/>
    <type id="highway.ford" priority="1" numLanes="1" speed="2.78" allow="army" oneway="0"/>
    <type id="highway.living_street" priority="2" numLanes="1" speed="2.78" disallow="tram rail_urban rail rail_electric rail_fast ship" oneway="0"/>
    <type id="highway.motorway" priority="14" numLanes="2" speed="39.44" allow="private emergency authority army vip passenger hov taxi bus coach delivery truck trailer motorcycle evehicle custom1 custom2" oneway="1"/>
    <type id="highway.motorway_link" priority="9" numLanes="1" speed="22.22" allow="private emergency authority army vip passenger hov taxi bus coach delivery truck trailer motorcycle evehicle custom1 custom2" oneway="1"/>
    <type id="highway.path" priority="1" numLanes="1" speed="2.78" allow="pedestrian bicycle" oneway="0" width="2.00"/>
    <type id="highway.pedestrian" priority="1" numLanes="1" speed="2.78" allow="pedestrian" oneway="1" width="2.00"/>
    <type id="highway.primary" priority="12" numLanes="2" speed="27.78" disallow="tram rail_urban rail rail_electric rail_fast ship" oneway="0"/>
    <type id="highway.primary_link" priority="7" numLanes="1" speed="22.22" disallow="tram rail_urban rail rail_electric rail_fast ship" oneway="0"/>
    <type id="highway.raceway" priority="15" numLanes="2" speed="83.33" allow="vip" oneway="0"/>
    <type id="highway.residential" priority="3" numLanes="1" speed="13.89" disallow="tram rail_urban rail rail_electric rail_fast ship" oneway="0"/>
    <type id="highway.secondary" priority="11" numLanes="1" speed="27.78" disallow="tram rail_urban rail rail_electric rail_fast ship" oneway="0"/>
    <type id="highway.secondary_link" priority="6" numLanes="1" speed="22.22" disallow="tram rail_urban rail rail_electric rail_fast ship" oneway="0"/>
    <type id="highway.service" priority="1" numLanes="1" speed="5.56" allow="pedestrian delivery bicycle" oneway="0"/>
    <type id="highway.stairs" priority="1" numLanes="1" speed="1.39" allow="pedestrian" oneway="1" width="2.00"/>
    <type id="highway.step" priority="1" numLanes="1" speed="1.39" allow="pedestrian" oneway="1" width="2.00"/>
    <type id="highway.steps" priority="1" numLanes="1" speed="1.39" allow="pedestrian" oneway="1" width="2.00"/>
    <type id="highway.tertiary" priority="10" numLanes="1" speed="22.22" disallow="tram rail_urban rail rail_electric rail_fast ship" oneway="0"/>
    <type id="highway.tertiary_link" priority="5" numLanes="1" speed="22.22" disallow="tram rail_urban rail rail_electric rail_fast ship" oneway="0"/>
    <type id="highway.track" priority="1" numLanes="1" speed="5.56" allow="pedestrian motorcycle moped bicycle" oneway="0"/>
    <type id="highway.trunk" priority="13" numLanes="2" speed="27.78" disallow="pedestrian bicycle tram rail_urban rail rail_electric rail_fast ship" oneway="0"/>
    <type id="highway.trunk_link" priority="8" numLanes="1" speed="22.22" disallow="pedestrian bicycle tram rail_urban rail rail_electric rail_fast ship" oneway="0"/>
    <type id="highway.unclassified" priority="4" numLanes="1" speed="13.89" disallow="tram rail_urban rail rail_electric rail_fast ship" oneway="0"/>
    <type id="highway.unsurfaced" priority="1" numLanes="1" speed="8.33" disallow="tram rail_urban rail rail_electric rail_fast ship" oneway="0"/>
    <type id="railway.highspeed" priority="21" numLanes="1" speed="69.44" allow="rail_fast" oneway="1"/>
    <type id="railway.light_rail" priority="19" numLanes="1" speed="27.78" allow="rail_urban" oneway="1"/>
    <type id="railway.preserved" priority="16" numLanes="1" speed="27.78" allow="rail" oneway="1"/>
    <type id="railway.rail" priority="20" numLanes="1" speed="44.44" allow="rail" oneway="1"/>
    <type id="railway.subway" priority="18" numLanes="1" speed="27.78" allow="rail_urban" oneway="1"/>
    <type id="railway.tram" priority="17" numLanes="1" speed="13.89" allow="tram" oneway="1"/>

    <edge id=":27479665_0" function="internal">
        <lane id=":27479665_0_0" index="0" disallow="tram rail_urban rail rail_electric rail_fast ship" speed="3.65" length="4.67" shape="24.52,374.73 23.13,375.12 22.26,374.90 21.92,374.07 22.09,372.64"/>
    </edge>
    <edge id=":2773665296_0" function="internal">
        <lane id=":2773665296_0_0" index="0" disallow="pedestrian tram rail_urban rail rail_electric rail_fast ship" speed="3.65" length="4.67" shape="281.15,324.20 281.53,325.60 281.30,326.46 280.47,326.80 279.04,326.61"/>
    </edge>
    <edge id=":2773686824_0" function="internal">
        <lane id=":2773686824_0_0" index="0" allow="pedestrian delivery bicycle" speed="3.65" length="4.67" shape="138.32,132.00 139.71,131.65 140.58,131.89 140.90,132.72 140.69,134.15"/>
    </edge>
    <edge id=":2773686835_0" function="internal">
        <lane id=":2773686835_0_0" index="0" allow="pedestrian delivery bicycle" speed="5.56" length="5.68" shape="113.34,164.41 109.55,168.64"/>
    </edge>
    <edge id=":2773686835_1" function="internal">
        <lane id=":2773686835_1_0" index="0" allow="pedestrian delivery bicycle" speed="3.65" length="1.44" shape="113.34,164.41 111.94,164.76"/>
    </edge>
    <edge id=":2773686835_4" function="internal">
        <lane id=":2773686835_4_0" index="0" allow="pedestrian delivery bicycle" speed="3.65" length="3.23" shape="111.94,164.76 111.08,164.52 110.75,163.69 110.96,162.26"/>
    </edge>
    <edge id=":2773686835_2" function="internal">
        <lane id=":2773686835_2_0" index="0" allow="pedestrian delivery bicycle" speed="5.56" length="5.72" shape="107.15,166.52 110.96,162.26"/>
    </edge>
    <edge id=":2773686835_3" function="internal">
        <lane id=":2773686835_3_0" index="0" allow="pedestrian delivery bicycle" speed="3.65" length="1.44" shape="107.15,166.52 108.54,166.15"/>
    </edge>
    <edge id=":2773686835_5" function="internal">
        <lane id=":2773686835_5_0" index="0" allow="pedestrian delivery bicycle" speed="3.65" length="3.23" shape="108.54,166.15 109.41,166.38 109.74,167.21 109.55,168.64"/>
    </edge>
    <edge id=":27737373_0" function="internal">
        <lane id=":27737373_0_0" index="0" disallow="tram rail_urban rail rail_electric rail_fast ship" speed="8.33" length="5.01" shape="187.67,183.09 191.02,179.37"/>
    </edge>
    <edge id=":2828788601_0" function="internal">
        <lane id=":2828788601_0_0" index="0" disallow="pedestrian tram rail_urban rail rail_electric rail_fast ship" speed="3.65" length="4.67" shape="47.55,125.53 47.14,124.14 47.35,123.27 48.17,122.92 49.60,123.08"/>
    </edge>
    <edge id=":442006470_0" function="internal">
        <lane id=":442006470_0_0" index="0" disallow="pedestrian tram rail_urban rail rail_electric rail_fast ship" speed="13.89" length="9.36" shape="141.89,206.31 134.85,200.15"/>
    </edge>
    <edge id=":442006470_1" function="internal">
        <lane id=":442006470_1_0" index="0" allow="delivery bicycle" speed="6.84" length="3.26" shape="141.89,206.31 140.06,204.15 139.93,203.74"/>
    </edge>
    <edge id=":442006470_7" function="internal">
        <lane id=":442006470_7_0" index="0" allow="delivery bicycle" speed="6.84" length="7.03" shape="139.93,203.74 139.37,201.94 139.83,199.67 141.45,197.35"/>
    </edge>
    <edge id=":442006470_2" function="internal">
        <lane id=":442006470_2_0" index="0" allow="delivery bicycle" speed="5.01" length="5.03" shape="143.79,199.53 143.00,200.66 142.78,201.77 143.11,202.85 144.01,203.91"/>
    </edge>
    <edge id=":442006470_3" function="internal">
        <lane id=":442006470_3_0" index="0" allow="delivery bicycle" speed="6.94" length="10.15" shape="143.79,199.53 141.62,201.30 139.40,202.00 137.15,201.62 134.85,200.15"/>
    </edge>
    <edge id=":442006470_4" function="internal">
        <lane id=":442006470_4_0" index="0" allow="pedestrian delivery bicycle" speed="3.65" length="4.67" shape="143.79,199.53 142.39,199.86 141.53,199.61 141.22,198.77 141.45,197.35"/>
    </edge>
    <edge id=":442006470_5" function="internal">
        <lane id=":442006470_5_0" index="0" allow="delivery bicycle" speed="5.15" length="5.12" shape="136.94,197.73 138.08,198.45 139.22,198.63 140.34,198.26 141.45,197.35"/>
    </edge>
    <edge id=":442006470_6" function="internal">
        <lane id=":442006470_6_0" index="0" disallow="pedestrian tram rail_urban rail rail_electric rail_fast ship" speed="13.89" length="9.39" shape="136.94,197.73 144.01,203.91"/>
    </edge>
    <edge id=":442006471_0" function="internal">
        <lane id=":442006471_0_0" index="0" allow="pedestrian delivery bicycle" speed="3.65" length="4.67" shape="152.99,184.19 154.38,183.80 155.25,184.02 155.59,184.85 155.42,186.28"/>
    </edge>
    <edge id=":946836386_0" function="internal">
        <lane id=":946836386_0_0" index="0" allow="pedestrian delivery bicycle" speed="5.56" length="5.19" shape="148.99,193.78 145.53,197.65"/>
    </edge>
    <edge id=":946836386_1" function="internal">
        <lane id=":946836386_1_0" index="0" allow="pedestrian delivery bicycle" speed="3.65" length="1.44" shape="148.99,193.78 147.60,194.17"/>
    </edge>
    <edge id=":946836386_4" function="internal">
        <lane id=":946836386_4_0" index="0" allow="pedestrian delivery bicycle" speed="3.65" length="3.23" shape="147.60,194.17 146.73,193.95 146.38,193.13 146.56,191.70"/>
    </edge>
    <edge id=":946836386_2" function="internal">
        <lane id=":946836386_2_0" index="0" allow="pedestrian delivery bicycle" speed="5.56" length="5.06" shape="143.18,195.47 146.56,191.70"/>
    </edge>
    <edge id=":946836386_3" function="internal">
        <lane id=":946836386_3_0" index="0" allow="pedestrian delivery bicycle" speed="3.65" length="1.44" shape="143.18,195.47 144.59,195.14"/>
    </edge>
    <edge id=":946836386_5" function="internal">
        <lane id=":946836386_5_0" index="0" allow="pedestrian delivery bicycle" speed="3.65" length="3.23" shape="144.59,195.14 145.45,195.39 145.76,196.23 145.53,197.65"/>
    </edge>
    <edge id=":cluster_1659064558_2773686854_0" function="internal">
        <lane id=":cluster_1659064558_2773686854_0_0" index="0" disallow="pedestrian tram rail_urban rail rail_electric rail_fast ship" speed="13.89" length="13.77" shape="110.45,179.06 100.02,170.08"/>
    </edge>
    <edge id=":cluster_1659064558_2773686854_1" function="internal">
        <lane id=":cluster_1659064558_2773686854_1_0" index="0" allow="delivery bicycle" speed="7.92" length="5.50" shape="110.45,179.06 107.15,175.68 106.77,175.00"/>
    </edge>
    <edge id=":cluster_1659064558_2773686854_7" function="internal">
        <lane id=":cluster_1659064558_2773686854_7_0" index="0" allow="delivery bicycle" speed="7.92" length="8.48" shape="106.77,175.00 105.40,172.58 105.19,169.76 106.53,167.22"/>
    </edge>
    <edge id=":cluster_1659064558_2773686854_2" function="internal">
        <lane id=":cluster_1659064558_2773686854_2_0" index="0" allow="delivery bicycle" speed="6.44" length="8.90" shape="108.93,169.34 108.37,170.68 108.79,172.35 110.18,174.34 112.54,176.64"/>
    </edge>
    <edge id=":cluster_1659064558_2773686854_3" function="internal">
        <lane id=":cluster_1659064558_2773686854_3_0" index="0" allow="delivery bicycle" speed="6.91" length="10.15" shape="108.93,169.34 106.81,171.16 104.61,171.90 102.35,171.54 100.02,170.08"/>
    </edge>
    <edge id=":cluster_1659064558_2773686854_4" function="internal">
        <lane id=":cluster_1659064558_2773686854_4_0" index="0" allow="pedestrian delivery bicycle" speed="3.65" length="4.67" shape="108.93,169.34 107.54,169.71 106.67,169.48 106.34,168.65 106.53,167.22"/>
    </edge>
    <edge id=":cluster_1659064558_2773686854_5" function="internal">
        <lane id=":cluster_1659064558_2773686854_5_0" index="0" allow="delivery bicycle" speed="5.11" length="5.08" shape="102.08,167.64 103.24,168.35 104.36,168.52 105.46,168.15 106.53,167.22"/>
    </edge>
    <edge id=":cluster_1659064558_2773686854_6" function="internal">
        <lane id=":cluster_1659064558_2773686854_6_0" index="0" disallow="pedestrian tram rail_urban rail rail_electric rail_fast ship" speed="13.89" length="13.80" shape="102.08,167.64 112.54,176.64"/>
    </edge>
    <edge id=":cluster_1737279708_25576845_946836361_946872553_0" function="internal">
        <lane id=":cluster_1737279708_25576845_946836361_946872553_0_0" index="0" allow="pedestrian bicycle" speed="5.71" length="8.39" shape="155.33,230.34 153.62,228.57 151.90,227.91 150.18,228.34 148.44,229.87"/>
    </edge>
    <edge id=":cluster_1737279708_25576845_946836361_946872553_1" function="internal">
        <lane id=":cluster_1737279708_25576845_946836361_946872553_1_0" index="0" allow="bicycle" speed="8.33" length="16.88" shape="155.33,230.34 153.92,226.59 153.42,222.03 152.77,217.60 150.92,214.26"/>
    </edge>
    <edge id=":cluster_1737279708_25576845_946836361_946872553_2" function="internal">
        <lane id=":cluster_1737279708_25576845_946836361_946872553_2_0" index="0" allow="pedestrian bicycle" speed="5.56" length="27.13" shape="155.33,230.34 154.28,226.53 155.73,221.37 159.68,214.84 166.14,206.97"/>
    </edge>
    <edge id=":cluster_1737279708_25576845_946836361_946872553_3" function="internal">
        <lane id=":cluster_1737279708_25576845_946836361_946872553_3_0" index="0" allow="bicycle" speed="6.24" length="17.54" shape="155.33,230.34 154.24,225.94 156.26,222.08 160.04,220.14 164.23,221.48"/>
    </edge>
    <edge id=":cluster_1737279708_25576845_946836361_946872553_4" function="internal">
        <lane id=":cluster_1737279708_25576845_946836361_946872553_4_0" index="0" disallow="pedestrian tram rail_urban rail rail_electric rail_fast ship" speed="8.49" length="16.40" shape="161.95,223.74 159.30,222.54 156.16,223.16 152.54,225.60 148.44,229.87"/>
    </edge>
    <edge id=":cluster_1737279708_25576845_946836361_946872553_5" function="internal">
        <lane id=":cluster_1737279708_25576845_946836361_946872553_5_0" index="0" disallow="pedestrian tram rail_urban rail rail_electric rail_fast ship" speed="13.89" length="14.55" shape="161.95,223.74 150.92,214.26"/>
    </edge>
    <edge id=":cluster_1737279708_25576845_946836361_946872553_6" function="internal">
        <lane id=":cluster_1737279708_25576845_946836361_946872553_6_0" index="0" disallow="pedestrian tram rail_urban rail rail_electric rail_fast ship" speed="9.19" length="2.69" shape="161.95,223.74 160.47,221.50"/>
    </edge>
    <edge id=":cluster_1737279708_25576845_946836361_946872553_7" function="internal">
        <lane id=":cluster_1737279708_25576845_946836361_946872553_7_0" index="0" disallow="pedestrian tram rail_urban rail rail_electric rail_fast ship" speed="3.65" length="1.45" shape="161.95,223.74 161.67,222.33"/>
    </edge>
    <edge id=":cluster_1737279708_25576845_946836361_946872553_16" function="internal">
        <lane id=":cluster_1737279708_25576845_946836361_946872553_16_0" index="0" disallow="pedestrian tram rail_urban rail rail_electric rail_fast ship" speed="9.19" length="16.55" shape="160.47,221.50 159.93,220.69 159.95,216.87 162.02,212.30 166.14,206.97"/>
    </edge>
    <edge id=":cluster_1737279708_25576845_946836361_946872553_17" function="internal">
        <lane id=":cluster_1737279708_25576845_946836361_946872553_17_0" index="0" disallow="pedestrian tram rail_urban rail rail_electric rail_fast ship" speed="3.65" length="3.24" shape="161.67,222.33 161.96,221.48 162.81,221.20 164.23,221.48"/>
    </edge>
    <edge id=":cluster_1737279708_25576845_946836361_946872553_8" function="internal">
        <lane id=":cluster_1737279708_25576845_946836361_946872553_8_0" index="0" disallow="pedestrian tram rail_urban rail rail_electric rail_fast ship" speed="8.34" length="15.37" shape="153.17,211.98 155.75,213.22 158.77,212.80 162.23,210.72 166.14,206.97"/>
    </edge>
    <edge id=":cluster_1737279708_25576845_946836361_946872553_9" function="internal">
        <lane id=":cluster_1737279708_25576845_946836361_946872553_9_0" index="0" disallow="pedestrian tram rail_urban rail rail_electric rail_fast ship" speed="13.89" length="14.58" shape="153.17,211.98 164.23,221.48"/>
    </edge>
    <edge id=":cluster_1737279708_25576845_946836361_946872553_10" function="internal">
        <lane id=":cluster_1737279708_25576845_946836361_946872553_10_0" index="0" disallow="pedestrian tram rail_urban rail rail_electric rail_fast ship" speed="9.56" length="2.48" shape="153.17,211.98 154.49,214.08"/>
    </edge>
    <edge id=":cluster_1737279708_25576845_946836361_946872553_11" function="internal">
        <lane id=":cluster_1737279708_25576845_946836361_946872553_11_0" index="0" disallow="pedestrian tram rail_urban rail rail_electric rail_fast ship" speed="3.65" length="1.44" shape="153.17,211.98 153.46,213.40"/>
    </edge>
    <edge id=":cluster_1737279708_25576845_946836361_946872553_18" function="internal">
        <lane id=":cluster_1737279708_25576845_946836361_946872553_18_0" index="0" disallow="pedestrian tram rail_urban rail rail_electric rail_fast ship" speed="9.56" length="17.83" shape="154.49,214.08 155.09,215.05 154.94,219.05 152.73,223.99 148.44,229.87"/>
    </edge>
    <edge id=":cluster_1737279708_25576845_946836361_946872553_19" function="internal">
        <lane id=":cluster_1737279708_25576845_946836361_946872553_19_0" index="0" disallow="pedestrian tram rail_urban rail rail_electric rail_fast ship" speed="3.65" length="3.24" shape="153.46,213.40 153.19,214.25 152.34,214.54 150.92,214.26"/>
    </edge>
    <edge id=":cluster_1737279708_25576845_946836361_946872553_12" function="internal">
        <lane id=":cluster_1737279708_25576845_946836361_946872553_12_0" index="0" disallow="pedestrian tram rail_urban rail rail_electric rail_fast ship" speed="8.42" length="15.53" shape="145.99,227.81 149.53,223.11 151.54,219.28 152.00,216.33 150.92,214.26"/>
    </edge>
    <edge id=":cluster_1737279708_25576845_946836361_946872553_13" function="internal">
        <lane id=":cluster_1737279708_25576845_946836361_946872553_13_0" index="0" disallow="tram rail_urban rail rail_electric rail_fast ship" speed="11.11" length="28.99" shape="145.99,227.81 166.14,206.97"/>
    </edge>
    <edge id=":cluster_1737279708_25576845_946836361_946872553_14" function="internal">
        <lane id=":cluster_1737279708_25576845_946836361_946872553_14_0" index="0" disallow="pedestrian tram rail_urban rail rail_electric rail_fast ship" speed="9.69" length="21.69" shape="145.99,227.81 151.18,222.59 155.94,219.79 160.29,219.43 164.23,221.48"/>
    </edge>
    <edge id=":cluster_1737279708_25576845_946836361_946872553_15" function="internal">
        <lane id=":cluster_1737279708_25576845_946836361_946872553_15_0" index="0" disallow="tram rail_urban rail rail_electric rail_fast ship" speed="3.65" length="1.44" shape="145.99,227.81 147.37,227.41"/>
    </edge>
    <edge id=":cluster_1737279708_25576845_946836361_946872553_20" function="internal">
        <lane id=":cluster_1737279708_25576845_946836361_946872553_20_0" index="0" disallow="tram rail_urban rail rail_electric rail_fast ship" speed="3.65" length="3.23" shape="147.37,227.41 148.24,227.61 148.60,228.43 148.44,229.87"/>
    </edge>

    <edge id="-272446853#0" from="2773686835" to="2773686824" priority="1" type="highway.service">
        <lane id="-272446853#0_0" index="0" allow="pedestrian delivery bicycle" speed="5.56" length="40.79" shape="110.96,162.26 138.32,132.00">
            <param key="origId" value="272446853"/>
        </lane>
    </edge>
    <edge id="-272446853#1" from="cluster_1659064558_2773686854" to="2773686835" priority="1" type="highway.service" shape="104.59,171.85 110.00,165.71">
        <lane id="-272446853#1_0" index="0" allow="pedestrian delivery bicycle" speed="5.56" length="0.93" shape="106.53,167.22 107.15,166.52">
            <param key="origId" value="272446853"/>
        </lane>
        <param key="origFrom" value="2773686854"/>
    </edge>
    <edge id="-278513971#0" from="cluster_1659064558_2773686854" to="2828788601" name="Lothstraße" priority="3" type="highway.residential" shape="104.59,171.85 68.02,140.98 55.67,130.29 50.54,125.96 48.58,124.30">
        <lane id="-278513971#0_0" index="0" disallow="pedestrian tram rail_urban rail rail_electric rail_fast ship" speed="13.89" length="68.84" shape="100.02,170.08 66.98,142.20 54.63,131.50 49.51,127.18 47.55,125.53">
            <param key="origId" value="278513971"/>
        </lane>
        <param key="origFrom" value="2773686854"/>
    </edge>
    <edge id="-278513971#2" from="442006470" to="cluster_1659064558_2773686854" name="Lothstraße" priority="3" type="highway.residential" shape="139.36,201.94 109.67,176.27">
        <lane id="-278513971#2_0" index="0" disallow="pedestrian tram rail_urban rail rail_electric rail_fast ship" speed="13.89" length="32.25" shape="134.85,200.15 110.45,179.06">
            <param key="origId" value="278513971"/>
        </lane>
        <param key="origTo" value="1659064558"/>
    </edge>
    <edge id="-278513971#3" from="cluster_1737279708_25576845_946836361_946872553" to="442006470" name="Lothstraße" priority="3" type="highway.residential" shape="151.67,212.79 149.06,210.49 139.36,201.94">
        <lane id="-278513971#3_0" index="0" disallow="pedestrian tram rail_urban rail rail_electric rail_fast ship" speed="13.89" length="12.03" shape="150.92,214.26 148.00,211.69 141.89,206.31">
            <param key="origId" value="278513971"/>
        </lane>
        <param key="origFrom" value="1737279708"/>
    </edge>
    <edge id="-292630184#1" from="2773665296" to="cluster_1737279708_25576845_946836361_946872553" name="Lothstraße" priority="3" type="highway.residential" shape="280.10,325.41 243.86,293.50 157.15,217.40">
        <lane id="-292630184#1_0" index="0" disallow="pedestrian tram rail_urban rail rail_electric rail_fast ship" speed="13.89" length="155.85" shape="279.04,326.61 242.81,294.70 161.95,223.74">
            <param key="origId" value="292630184"/>
        </lane>
        <param key="origTo" value="25576845"/>
    </edge>
    <edge id="-37693892#0" from="946836386" to="442006470" priority="1" type="highway.service">
        <lane id="-37693892#0_0" index="0" allow="pedestrian delivery bicycle" speed="5.56" length="2.56" shape="145.53,197.65 143.79,199.53">
            <param key="origId" value="37693892"/>
        </lane>
    </edge>
    <edge id="-37693892#1" from="442006471" to="946836386" priority="1" type="highway.service">
        <lane id="-37693892#1_0" index="0" allow="pedestrian delivery bicycle" speed="5.56" length="9.88" shape="155.42,186.28 148.99,193.78">
            <param key="origId" value="37693892"/>
        </lane>
    </edge>
    <edge id="-4520030#0" from="cluster_1737279708_25576845_946836361_946872553" to="27479665" name="Heßstraße" priority="4" type="highway.unclassified" shape="150.95,224.39 121.57,259.44 109.10,272.83 96.77,288.41 85.56,301.42 81.48,306.30 58.83,332.49 49.01,343.84 23.31,373.69">
        <lane id="-4520030#0_0" index="0" disallow="tram rail_urban rail rail_electric rail_fast ship" speed="13.89" length="190.67" shape="148.44,229.87 122.77,260.50 110.32,273.88 98.01,289.43 86.78,302.46 82.69,307.34 60.04,333.53 50.22,344.89 24.52,374.73">
            <param key="origId" value="4520030"/>
        </lane>
        <param key="origFrom" value="946872553"/>
    </edge>
    <edge id="153191826#0" from="cluster_1659064558_2773686854" to="1813181973" priority="1" type="highway.footway" spreadType="center" shape="109.67,176.27 115.65,168.99">
        <lane id="153191826#0_0" index="0" allow="pedestrian" speed="2.78" length="2.04" width="2.00" shape="112.66,172.63 113.95,171.06">
            <param key="origId" value="153191826"/>
        </lane>
        <param key="origFrom" value="1659064558"/>
    </edge>
    <edge id="153191826#1" from="1813181973" to="1659064537" priority="1" type="highway.footway" spreadType="center" shape="115.65,168.99 133.90,146.89 150.46,128.76 150.12,125.99 138.98,112.62 138.91,110.06 146.37,96.92 154.09,103.10">
        <lane id="153191826#1_0" index="0" allow="pedestrian" speed="2.78" length="98.47" width="2.00" shape="117.24,167.07 133.90,146.89 150.46,128.76 150.12,125.99 138.98,112.62 138.91,110.06 146.37,96.92 154.09,103.10">
            <param key="origId" value="153191826 433685634"/>
        </lane>
    </edge>
    <edge id="161652311#0" from="946872593" to="2773686835" name="Lothstraße" priority="1" type="highway.footway" spreadType="center" shape="18.56,83.14 28.81,95.27 40.75,105.30 43.88,107.93 57.26,119.16 62.00,123.14 74.08,134.02 110.00,165.71">
        <lane id="161652311#0_0" index="0" allow="pedestrian" speed="2.78" length="118.68" width="2.00" shape="18.56,83.14 28.81,95.27 40.75,105.30 43.88,107.93 57.26,119.16 62.00,123.14 74.08,134.02 106.48,162.60">
            <param key="origId" value="161652311"/>
        </lane>
    </edge>
    <edge id="161652311#1" from="2773686835" to="1813181973" name="Lothstraße" priority="1" type="highway.footway" spreadType="center">
        <lane id="161652311#1_0" index="0" allow="pedestrian" speed="2.78" length="0.20" width="2.00" shape="113.74,167.88 113.91,167.98">
            <param key="origId" value="161652311"/>
        </lane>
    </edge>
    <edge id="161652311#2" from="1813181973" to="3528517109" name="Lothstraße" priority="1" type="highway.footway" spreadType="center">
        <lane id="161652311#2_0" index="0" allow="pedestrian" speed="2.78" length="3.72" width="2.00" shape="117.58,170.60 120.42,172.99">
            <param key="origId" value="161652311"/>
        </lane>
    </edge>
    <edge id="161652311#3" from="3528517109" to="3528517117" name="Lothstraße" priority="1" type="highway.footway" spreadType="center">
        <lane id="161652311#3_0" index="0" allow="pedestrian" speed="2.78" length="8.60" width="2.00" shape="124.25,176.21 130.84,181.74">
            <param key="origId" value="161652311"/>
        </lane>
    </edge>
    <edge id="161652311#4" from="3528517117" to="946836386" name="Lothstraße" priority="1" type="highway.footway" spreadType="center">
        <lane id="161652311#4_0" index="0" allow="pedestrian" speed="2.78" length="10.23" width="2.00" shape="134.70,184.97 142.53,191.56">
            <param key="origId" value="161652311"/>
        </lane>
    </edge>
    <edge id="161652311#5" from="946836386" to="3528517120" name="Lothstraße" priority="1" type="highway.footway" spreadType="center">
        <lane id="161652311#5_0" index="0" allow="pedestrian" speed="2.78" length="6.24" width="2.00" shape="149.64,197.77 154.25,201.97">
            <param key="origId" value="161652311"/>
        </lane>
    </edge>
    <edge id="161652311#6" from="3528517120" to="cluster_1737279708_25576845_946836361_946872553" name="Lothstraße" priority="1" type="highway.footway" spreadType="center" shape="156.22,203.76 162.85,210.62">
        <lane id="161652311#6_0" index="0" allow="pedestrian" speed="2.78" length="4.06" width="2.00" shape="157.82,205.42 160.64,208.34">
            <param key="origId" value="161652311"/>
        </lane>
        <param key="origTo" value="946836361"/>
    </edge>
    <edge id="161652311#7" from="cluster_1737279708_25576845_946836361_946872553" to="8748896746" name="Lothstraße" priority="1" type="highway.footway" spreadType="center" shape="162.85,210.62 166.61,214.38">
        <lane id="161652311#7_0" index="0" allow="pedestrian" speed="2.78" length="0.20" width="2.00" shape="166.83,214.59 166.97,214.73">
            <param key="origId" value="161652311"/>
        </lane>
        <param key="origFrom" value="946836361"/>
    </edge>
    <edge id="161652311#8" from="8748896746" to="8748896742" name="Lothstraße" priority="1" type="highway.footway" spreadType="center" shape="166.61,214.38 168.64,216.39 206.44,249.12 245.73,284.14">