<?xml version="1.0" encoding="UTF-8"?>
<!-- generated on 2021-11-25 14:52:59.319731 by $Id$ v1_9_2+0044-41c239f2c4
  options: <doubleminus>configuration-file ubahn_mfreiheit_300_cfg.xml
-->
<routes xmlns:xsi="http://www.w3.org/2001/XMLSchema-instance" xsi:noNamespaceSchemaLocation="http://sumo.dlr.de/xsd/routes_file.xsd">
    <person id="0" depart="0.00" type="pedType1">
        <walk from="33487028#3" to="-308384337#2"/>
    </person>
    <person id="1" depart="0.10" type="pedType1">
        <walk from="371076637" to="346040145#0"/>
    </person>
    <person id="2" depart="0.20" type="pedType1">
        <walk from="378298913#6" to="100024661#0"/>
    </person>
    <person id="3" depart="0.30" type="pedType1">
        <walk from="258747528#2" to="-31344484"/>
    </person>
    <person id="4" depart="0.40" type="pedType1">
        <walk from="196055608#0" to="258747553"/>
    </person>
    <person id="5" depart="0.50" type="pedType1">
        <walk from="-31344484" to="157964862#4"/>
    </person>
    <person id="6" depart="0.60" type="pedType1">
        <walk from="196055608#0" to="300958409#1"/>
    </person>
    <person id="7" depart="0.70" type="pedType1">
        <walk from="374541987#0" to="-155546691"/>
    </person>
    <person id="8" depart="0.80" type="pedType1">
        <walk from="374541986#1" to="346040148#0"/>
    </person>
    <person id="9" depart="0.90" type="pedType1">
        <walk from="258139176" to="105289335"/>
    </person>
    <person id="10" depart="1.00" type="pedType1">
        <walk from="533368697#2" to="258139175"/>
    </person>
    <person id="11" depart="1.10" type="pedType1">
        <walk from="100024661#1" to="100024668"/>
    </person>
    <person id="12" depart="1.20" type="pedType1">
        <walk from="378298812#8" to="308384337#2"/>
    </person>
    <person id="13" depart="1.30" type="pedType1">
        <walk from="374541986#1" to="371076635"/>
    </person>
    <person id="14" depart="1.40" type="pedType1">
        <walk from="258747560#1" to="618310630"/>
    </person>
    <person id="15" depart="1.50" type="pedType1">
        <walk from="374541989#1" to="332176204"/>
    </person>
    <person id="16" depart="1.60" type="pedType1">
        <walk from="378298840" to="265278402#2"/>
    </person>
    <person id="17" depart="1.70" type="pedType1">
        <walk from="346040148#2" to="-33487028#3"/>
    </person>
    <person id="18" depart="1.80" type="pedType1">
        <walk from="214785685#0" to="24039836#7"/>
    </person>
    <person id="19" depart="1.90" type="pedType1">
        <walk from="-86414054#1" to="214785685#1"/>
    </person>
    <person id="20" depart="2.00" type="pedType1">
        <walk from="100024671" to="24039836#4"/>
    </person>
    <person id="21" depart="2.10" type="pedType1">
        <walk from="33487028#2" to="258139184"/>
    </person>
    <person id="22" depart="2.20" type="pedType1">
        <walk from="258139186" to="193703018#4"/>
    </person>
    <person id="23" depart="2.30" type="pedType1">
        <walk from="24039836#2" to="409721064"/>
    </person>
    <person id="24" depart="2.40" type="pedType1">
        <walk from="346040138" to="308384352"/>
    </person>
    <person id="25" depart="2.50" type="pedType1">
        <walk from="132787788" to="258139189"/>
    </person>
    <person id="26" depart="2.60" type="pedType1">
        <walk from="86414061" to="33487028#3"/>
    </person>
    <person id="27" depart="2.70" type="pedType1">
        <walk from="378298810#6" to="371746586#8"/>
    </person>
    <person id="28" depart="2.80" type="pedType1">
        <walk from="214785685#0" to="-332176204"/>
    </person>
    <person id="29" depart="2.90" type="pedType1">
        <walk from="252700830#0" to="24039836#2"/>
    </person>
    <person id="30" depart="3.00" type="pedType1">
        <walk from="193703019#2" to="409721066"/>
    </person>
    <person id="31" depart="3.10" type="pedType1">
        <walk from="378298913#2" to="252700830#0"/>
    </person>
    <person id="32" depart="3.20" type="pedType1">
        <walk from="378298925#13" to="258747536"/>
    </person>
    <person id="33" depart="3.30" type="pedType1">
        <walk from="24039836#1" to="23968589#2"/>
    </person>
    <person id="34" depart="3.40" type="pedType1">
        <walk from="258747565#0" to="24039836#0"/>
    </person>
    <person id="35" depart="3.50" type="pedType1">
        <walk from="265278402#4" to="378298913#7"/>
    </person>
    <person id="36" depart="3.60" type="pedType1">
        <walk from="258139198" to="196055608#0"/>
    </person>
    <person id="37" depart="3.70" type="pedType1">
        <walk from="93072400#1" to="258747554"/>
    </person>
    <person id="38" depart="3.80" type="pedType1">
        <walk from="100024661#1" to="-33487028#3"/>
    </person>
    <person id="39" depart="3.90" type="pedType1">
        <walk from="-533368701" to="258139192"/>
    </person>
    <person id="40" depart="4.00" type="pedType1">
        <walk from="618310630" to="378298837"/>
    </person>
    <person id="41" depart="4.10" type="pedType1">
        <walk from="-157964859#0" to="364876165"/>
    </person>
    <person id="42" depart="4.20" type="pedType1">
        <walk from="346040145#1" to="258747560#1"/>
    </person>
    <person id="43" depart="4.30" type="pedType1">
        <walk from="24039836#1" to="33487028#3"/>
    </person>
    <person id="44" depart="4.40" type="pedType1">
        <walk from="105289323#1" to="258747528#5"/>
    </person>
    <person id="45" depart="4.50" type="pedType1">
        <walk from="258747531" to="533368697#1"/>
    </person>
    <person id="46" depart="4.60" type="pedType1">
        <walk from="378298913#1" to="24039836#1"/>
    </person>
    <person id="47" depart="4.70" type="pedType1">
        <walk from="258747552" to="155548876"/>
    </person>
    <person id="48" depart="4.80" type="pedType1">
        <walk from="251805202" to="33487028#2"/>
    </person>
    <person id="49" depart="4.90" type="pedType1">
        <walk from="308384344#0" to="105289332#4"/>
    </person>
    <person id="50" depart="5.00" type="pedType1">
        <walk from="371746586#4" to="258747562#0"/>
    </person>
    <person id="51" depart="5.10" type="pedType1">
        <walk from="374541980" to="258747560#0"/>
    </person>
    <person id="52" depart="5.20" type="pedType1">
        <walk from="-155546685" to="254945241#1"/>
    </person>
    <person id="53" depart="5.30" type="pedType1">
        <walk from="-308384337#1" to="378298925#9"/>
    </person>
    <person id="54" depart="5.40" type="pedType1">
        <walk from="378298913#2" to="374541989#2"/>
    </person>
    <person id="55" depart="5.50" type="pedType1">
        <walk from="251805203#1" to="-533368700"/>
    </person>
    <person id="56" depart="5.60" type="pedType1">
        <walk from="378298913#2" to="445043199"/>
    </person>
    <person id="57" depart="5.70" type="pedType1">
        <walk from="-86414061" to="258747548"/>
    </person>
    <person id="58" depart="5.80" type="pedType1">
        <walk from="-5785422" to="371746586#4"/>
    </person>
    <person id="59" depart="5.90" type="pedType1">
        <walk from="371746586#5" to="105289327"/>
    </person>
    <person id="60" depart="6.00" type="pedType1">
        <walk from="258747540" to="258747563#0"/>
    </person>
    <person id="61" depart="6.10" type="pedType1">
        <walk from="24039836#1" to="378298913#1"/>
    </person>
    <person id="62" depart="6.20" type="pedType1">
        <walk from="258747528#2" to="193703019#2"/>
    </person>
    <person id="63" depart="6.30" type="pedType1">
        <walk from="258747562#0" to="371076635"/>
    </person>
    <person id="64" depart="6.40" type="pedType1">
        <walk from="193703018#2" to="252700829"/>
    </person>
    <person id="65" depart="6.50" type="pedType1">
        <walk from="258747528#6" to="258747555#1"/>
    </person>
    <person id="66" depart="6.60" type="pedType1">
        <walk from="105289324#0" to="196055608#1"/>
    </person>
    <person id="67" depart="6.70" type="pedType1">
        <walk from="258139175" to="300958409#1"/>
    </person>
    <person id="68" depart="6.80" type="pedType1">
        <walk from="214785685#1" to="196055608#0"/>
    </person>
    <person id="69" depart="6.90" type="pedType1">
        <walk from="-5785422" to="33487027"/>
    </person>
    <person id="70" depart="7.00" type="pedType1">
        <walk from="214785685#0" to="378298925#10"/>
    </person>
    <person id="71" depart="7.10" type="pedType1">
        <walk from="378298837" to="-5785422"/>
    </person>
    <person id="72" depart="7.20" type="pedType1">
        <walk from="23968589#0" to="346040143"/>
    </person>
    <person id="73" depart="7.30" type="pedType1">
        <walk from="193703019#2" to="105289331"/>
    </person>
    <person id="74" depart="7.40" type="pedType1">
        <walk from="378298928#1" to="258747565#2"/>
    </person>
    <person id="75" depart="7.50" type="pedType1">
        <walk from="100024668" to="258747528#4"/>
    </person>
    <person id="76" depart="7.60" type="pedType1">
        <walk from="258747528#2" to="258747538#1"/>
    </person>
    <person id="77" depart="7.70" type="pedType1">
        <walk from="371076634" to="346040144#1"/>
    </person>
    <person id="78" depart="7.80" type="pedType1">
        <walk from="86414054#0" to="100024671"/>
    </person>
    <person id="79" depart="7.90" type="pedType1">
        <walk from="378298840" to="23968589#3"/>
    </person>
    <person id="80" depart="8.00" type="pedType1">
        <walk from="157964862#0" to="258747530"/>
    </person>
    <person id="81" depart="8.10" type="pedType1">
        <walk from="258747528#2" to="24039836#5"/>
    </person>
    <person id="82" depart="8.20" type="pedType1">
        <walk from="23968589#3" to="378298925#7"/>
    </person>
    <person id="83" depart="8.30" type="pedType1">
        <walk from="258747528#7" to="378298840"/>
    </person>
    <person id="84" depart="8.40" type="pedType1">
        <walk from="258747563#0" to="-33487028#4"/>
    </person>
    <person id="85" depart="8.50" type="pedType1">
        <walk from="93072400#1" to="374541989#3"/>
    </person>
    <person id="86" depart="8.60" type="pedType1">
        <walk from="618310628" to="378298925#8"/>
    </person>
    <person id="87" depart="8.70" type="pedType1">
        <walk from="378298812#8" to="132787789"/>
    </person>
    <person id="88" depart="8.80" type="pedType1">
        <walk from="258747548" to="193703019#2"/>
    </person>
    <person id="89" depart="8.90" type="pedType1">
        <walk from="258139198" to="-533368700"/>
    </person>
    <person id="90" depart="9.00" type="pedType1">
        <walk from="258139189" to="86414054#1"/>
    </person>
    <person id="91" depart="9.10" type="pedType1">
        <walk from="258747533" to="258747528#2"/>
    </person>
    <person id="92" depart="9.20" type="pedType1">
        <walk from="533368697#2" to="93072400#0"/>
    </person>
    <person id="93" depart="9.30" type="pedType1">
        <walk from="258747563#1" to="364876165"/>
    </person>
    <person id="94" depart="9.40" type="pedType1">
        <walk from="618310628" to="265278402#3"/>
    </person>
    <person id="95" depart="9.50" type="pedType1">
        <walk from="258747562#1" to="371076643#1"/>
    </person>
    <person id="96" depart="9.60" type="pedType1">
        <walk from="-533368700" to="265278402#4"/>
    </person>
    <person id="97" depart="9.70" type="pedType1">
        <walk from="258747552" to="378298816"/>
    </person>
    <person id="98" depart="9.80" type="pedType1">
        <walk from="105289335" to="5785422"/>
    </person>
    <person id="99" depart="9.90" type="pedType1">
        <walk from="-86414054#1" to="157964860#0"/>
    </person>
    <person id="100" depart="10.00" type="pedType1">
        <walk from="307181260#1" to="346040144#1"/>
    </person>
    <person id="101" depart="10.10" type="pedType1">
        <walk from="214785685#2" to="105289323#3"/>
    </person>
    <person id="102" depart="10.20" type="pedType1">
        <walk from="378298913#5" to="23968589#2"/>
    </person>
    <person id="103" depart="10.30" type="pedType1">
        <walk from="307181260#1" to="332176204"/>
    </person>
    <person id="104" depart="10.40" type="pedType1">
        <walk from="258747558#0" to="378298928#1"/>
    </person>
    <person id="105" depart="10.50" type="pedType1">
        <walk from="193703018#3" to="346040149"/>
    </person>
    <person id="106" depart="10.60" type="pedType1">
        <walk from="23968589#0" to="258139196"/>
    </person>
    <person id="107" depart="10.70" type="pedType1">
        <walk from="346040144#0" to="251805202"/>
    </person>
    <person id="108" depart="10.80" type="pedType1">
        <walk from="252700830#1" to="371746586#1"/>
    </person>
    <person id="109" depart="10.90" type="pedType1">
        <walk from="-80737020#4" to="258747533"/>
    </person>
    <person id="110" depart="11.00" type="pedType1">
        <walk from="-80737020#4" to="193703019#2"/>
    </person>
    <person id="111" depart="11.10" type="pedType1">
        <walk from="24039836#1" to="378298928#1"/>
    </person>
    <person id="112" depart="11.20" type="pedType1">
        <walk from="258139186" to="105289335"/>
    </person>
    <person id="113" depart="11.30" type="pedType1">
        <walk from="374541989#2" to="346040148#2"/>
    </person>
    <person id="114" depart="11.40" type="pedType1">
        <walk from="308384352" to="86414054#1"/>
    </person>
    <person id="115" depart="11.50" type="pedType1">
        <walk from="346040139" to="-155548876"/>
    </person>
    <person id="116" depart="11.60" type="pedType1">
        <walk from="374541988#0" to="251805202"/>
    </person>
    <person id="117" depart="11.70" type="pedType1">
        <walk from="105289331" to="105289323#2"/>
    </person>
    <person id="118" depart="11.80" type="pedType1">
        <walk from="105289323#0" to="258747563#1"/>
    </person>
    <person id="119" depart="11.90" type="pedType1">
        <walk from="24039836#3" to="308384337#2"/>
    </person>
    <person id="120" depart="12.00" type="pedType1">
        <walk from="346040149" to="193703018#3"/>
    </person>
    <person id="121" depart="12.10" type="pedType1">
        <walk from="258747548" to="378298925#10"/>
    </person>
    <person id="122" depart="12.20" type="pedType1">
        <walk from="378298812#8" to="100024661#1"/>
    </person>
    <person id="123" depart="12.30" type="pedType1">
        <walk from="-155546685" to="371746586#7"/>
    </person>
    <person id="124" depart="12.40" type="pedType1">
        <walk from="33487028#2" to="24039836#0"/>
    </person>
    <person id="125" depart="12.50" type="pedType1">
        <walk from="371076640#1" to="258747563#0"/>
    </person>
    <person id="126" depart="12.60" type="pedType1">
        <walk from="258747528#3" to="-155548876"/>
    </person>
    <person id="127" depart="12.70" type="pedType1">
        <walk from="-86414054#0" to="378298913#3"/>
    </person>
    <person id="128" depart="12.80" type="pedType1">
        <walk from="378298925#10" to="258747562#2"/>
    </person>
    <person id="129" depart="12.90" type="pedType1">
        <walk from="105289332#3" to="105289324#1"/>
    </person>
    <person id="130" depart="13.00" type="pedType1">
        <walk from="251805203#1" to="378298913#8"/>
    </person>
    <person id="131" depart="13.10" type="pedType1">
        <walk from="374541984" to="378298837"/>
    </person>
    <person id="132" depart="13.20" type="pedType1">
        <walk from="378298913#8" to="193703018#4"/>
    </person>
    <person id="133" depart="13.30" type="pedType1">
        <walk from="23968589#3" to="105289322"/>
    </person>
    <person id="134" depart="13.40" type="pedType1">
        <walk from="374541980" to="378298913#4"/>
    </person>
    <person id="135" depart="13.50" type="pedType1">
        <walk from="258139200#1" to="332176208#0"/>
    </person>
    <person id="136" depart="13.60" type="pedType1">
        <walk from="105289335" to="378298925#9"/>
    </person>
    <person id="137" depart="13.70" type="pedType1">
        <walk from="378298840" to="70220824"/>
    </person>
    <person id="138" depart="13.80" type="pedType1">
        <walk from="374541987#0" to="378298913#3"/>
    </person>
    <person id="139" depart="13.90" type="pedType1">
        <walk from="-308384337#2" to="371076637"/>
    </person>
    <person id="140" depart="14.00" type="pedType1">
        <walk from="258139172" to="378298925#9"/>
    </person>
    <person id="141" depart="14.10" type="pedType1">
        <walk from="374541986#0" to="378298840"/>
    </person>
    <person id="142" depart="14.20" type="pedType1">
        <walk from="374541987#0" to="24039836#1"/>
    </person>
    <person id="143" depart="14.30" type="pedType1">
        <walk from="374541982" to="105289323#0"/>
    </person>
    <person id="144" depart="14.40" type="pedType1">
        <walk from="196055608#1" to="374541988#0"/>
    </person>
    <person id="145" depart="14.50" type="pedType1">
        <walk from="258747536" to="251805203#1"/>
    </person>
    <person id="146" depart="14.60" type="pedType1">
        <walk from="374541984" to="214785685#0"/>
    </person>
    <person id="147" depart="14.70" type="pedType1">
        <walk from="-308384337#2" to="157964862#1"/>
    </person>
    <person id="148" depart="14.80" type="pedType1">
        <walk from="254945241#2" to="378298840"/>
    </person>
    <person id="149" depart="14.90" type="pedType1">
        <walk from="618310628" to="24039836#5"/>
    </person>
    <person id="150" depart="15.00" type="pedType1">
        <walk from="33487028#3" to="258139198"/>
    </person>
    <person id="151" depart="15.10" type="pedType1">
        <walk from="80737020#4" to="258747560#1"/>
    </person>
    <person id="152" depart="15.20" type="pedType1">
        <walk from="618310630" to="155548876"/>
    </person>
    <person id="153" depart="15.30" type="pedType1">
        <walk from="618310626" to="24039836#1"/>
    </person>
    <person id="154" depart="15.40" type="pedType1">
        <walk from="105289323#0" to="258747528#5"/>
    </person>
    <person id="155" depart="15.50" type="pedType1">
        <walk from="371076634" to="252700830#0"/>
    </person>
    <person id="156" depart="15.60" type="pedType1">
        <walk from="308384344#0" to="258747555#0"/>
    </person>
    <person id="157" depart="15.70" type="pedType1">
        <walk from="258139194#0" to="265278402#2"/>
    </person>
    <person id="158" depart="15.80" type="pedType1">
        <walk from="24039835#0" to="346040148#3"/>
    </person>
    <person id="159" depart="15.90" type="pedType1">
        <walk from="-155546685" to="378298925#8"/>
    </person>
    <person id="160" depart="16.00" type="pedType1">
        <walk from="258747562#0" to="364876165"/>
    </person>
    <person id="161" depart="16.10" type="pedType1">
        <walk from="371076640#1" to="346040144#0"/>
    </person>
    <person id="162" depart="16.20" type="pedType1">
        <walk from="258139183" to="-5785422"/>
    </person>
    <person id="163" depart="16.30" type="pedType1">
        <walk from="252700830#0" to="378298812#8"/>
    </person>
    <person id="164" depart="16.40" type="pedType1">
        <walk from="364876165" to="251805202"/>
    </person>
    <person id="165" depart="16.50" type="pedType1">
        <walk from="252700829" to="258139200#1"/>
    </person>
    <person id="166" depart="16.60" type="pedType1">
        <walk from="258139200#0" to="243816718#1"/>
    </person>
    <person id="167" depart="16.70" type="pedType1">
        <walk from="378298925#10" to="31344484"/>
    </person>
    <person id="168" depart="16.80" type="pedType1">
        <walk from="251805203#0" to="258747562#2"/>
    </person>
    <person id="169" depart="16.90" type="pedType1">
        <walk from="-155546685" to="24039836#7"/>
    </person>
    <person id="170" depart="17.00" type="pedType1">
        <walk from="346040140" to="258747538#0"/>
    </person>
    <person id="171" depart="17.10" type="pedType1">
        <walk from="258747528#7" to="193703019#2"/>
    </person>
    <person id="172" depart="17.20" type="pedType1">
        <walk from="258747539" to="378298913#8"/>
    </person>
    <person id="173" depart="17.30" type="pedType1">
        <walk from="374541984" to="151624978#2"/>
    </person>
    <person id="174" depart="17.40" type="pedType1">
        <walk from="-86414061" to="258747555#1"/>
    </person>
    <person id="175" depart="17.50" type="pedType1">
        <walk from="33487028#1" to="258139175"/>
    </person>
    <person id="176" depart="17.60" type="pedType1">
        <walk from="374541988#0" to="371746586#1"/>
    </person>
    <person id="177" depart="17.70" type="pedType1">
        <walk from="346040144#0" to="196055608#1"/>
    </person>
    <person id="178" depart="17.80" type="pedType1">
        <walk from="157964862#4" to="-308384337#2"/>
    </person>
    <person id="179" depart="17.90" type="pedType1">
        <walk from="23968589#2" to="258747540"/>
    </person>
    <person id="180" depart="18.00" type="pedType1">
        <walk from="378298816" to="-80737020#4"/>
    </person>
    <person id="181" depart="18.10" type="pedType1">
        <walk from="258747528#0" to="33487027"/>
    </person>
    <person id="182" depart="18.20" type="pedType1">
        <walk from="157964862#1" to="346040148#0"/>
    </person>
    <person id="183" depart="18.30" type="pedType1">
        <walk from="258747550" to="23968589#1"/>
    </person>
    <person id="184" depart="18.40" type="pedType1">
        <walk from="346040140" to="-155546691"/>
    </person>
    <person id="185" depart="18.50" type="pedType1">
        <walk from="371746586#1" to="371746586#6"/>
    </person>
    <person id="186" depart="18.60" type="pedType1">
        <walk from="105289323#0" to="258747528#3"/>
    </person>
    <person id="187" depart="18.70" type="pedType1">
        <walk from="155546685" to="533368697#2"/>
    </person>
    <person id="188" depart="18.80" type="pedType1">
        <walk from="258747555#1" to="-33487028#4"/>
    </person>
    <person id="189" depart="18.90" type="pedType1">
        <walk from="23968589#3" to="378298812#8"/>
    </person>
    <person id="190" depart="19.00" type="pedType1">
        <walk from="258747533" to="374541986#0"/>
    </person>
    <person id="191" depart="19.10" type="pedType1">
        <walk from="346040143" to="86414054#1"/>
    </person>
    <person id="192" depart="19.20" type="pedType1">
        <walk from="307181260#1" to="476035150"/>
    </person>
    <person id="193" depart="19.30" type="pedType1">
        <walk from="378298913#6" to="308384352"/>
    </person>
    <person id="194" depart="19.40" type="pedType1">
        <walk from="364876165" to="258747553"/>
    </person>
    <person id="195" depart="19.50" type="pedType1">
        <walk from="374541989#1" to="258747562#2"/>
    </person>
    <person id="196" depart="19.60" type="pedType1">
        <walk from="378298913#7" to="371076640#1"/>
    </person>
    <person id="197" depart="19.70" type="pedType1">
        <walk from="23968589#2" to="33487028#2"/>
    </person>
    <person id="198" depart="19.80" type="pedType1">
        <walk from="371746586#5" to="258747556"/>
    </person>
    <person id="199" depart="19.90" type="pedType1">
        <walk from="332176208#1" to="24039836#4"/>
    </person>
    <person id="200" depart="20.00" type="pedType1">
        <walk from="-86414054#0" to="24039836#7"/>
    </person>
    <person id="201" depart="20.10" type="pedType1">
        <walk from="24039836#3" to="254945241#0"/>
    </person>
    <person id="202" depart="20.20" type="pedType1">
        <walk from="258747562#0" to="105289332#0"/>
    </person>
    <person id="203" depart="20.30" type="pedType1">
        <walk from="346040148#2" to="-533381127"/>
    </person>
    <person id="204" depart="20.40" type="pedType1">
        <walk from="258139200#1" to="258747562#1"/>
    </person>
    <person id="205" depart="20.50" type="pedType1">
        <walk from="258747528#0" to="193703018#4"/>
    </person>
    <person id="206" depart="20.60" type="pedType1">
        <walk from="258747528#1" to="378298925#10"/>
    </person>
    <person id="207" depart="20.70" type="pedType1">
        <walk from="265278402#4" to="346040148#0"/>
    </person>
    <person id="208" depart="20.80" type="pedType1">
        <walk from="378298828" to="371746586#5"/>
    </person>
    <person id="209" depart="20.90" type="pedType1">
        <walk from="258139192" to="-155546691"/>
    </person>
    <person id="210" depart="21.00" type="pedType1">
        <walk from="258139179" to="371746586#2"/>
    </person>
    <person id="211" depart="21.10" type="pedType1">
        <walk from="378298828" to="533368697#1"/>
    </person>
    <person id="212" depart="21.20" type="pedType1">
        <walk from="258747528#1" to="371076643#1"/>
    </person>
    <person id="213" depart="21.30" type="pedType1">
        <walk from="258747562#2" to="308384337#2"/>
    </person>
    <person id="214" depart="21.40" type="pedType1">
        <walk from="258747528#5" to="-31344484"/>
    </person>
    <person id="215" depart="21.50" type="pedType1">
        <walk from="258139175" to="346040145#0"/>
    </person>
    <person id="216" depart="21.60" type="pedType1">
        <walk from="258139200#0" to="132787788"/>
    </person>
    <person id="217" depart="21.70" type="pedType1">
        <walk from="258747538#1" to="105289324#1"/>
    </person>
    <person id="218" depart="21.80" type="pedType1">
        <walk from="332176208#0" to="-31344484"/>
    </person>
    <person id="219" depart="21.90" type="pedType1">
        <walk from="258139195" to="258747565#1"/>
    </person>
    <person id="220" depart="22.00" type="pedType1">
        <walk from="-31344484" to="33487028#3"/>
    </person>
    <person id="221" depart="22.10" type="pedType1">
        <walk from="-33487028#4" to="258139189"/>
    </person>
    <person id="222" depart="22.20" type="pedType1">
        <walk from="193703019#2" to="254945241#1"/>
    </person>
    <person id="223" depart="22.30" type="pedType1">
        <walk from="371746586#4" to="258139189"/>
    </person>
    <person id="224" depart="22.40" type="pedType1">
        <walk from="371746586#2" to="374541989#2"/>
    </person>
    <person id="225" depart="22.50" type="pedType1">
        <walk from="24039835#0" to="-86414054#1"/>
    </person>
    <person id="226" depart="22.60" type="pedType1">
        <walk from="-308384337#1" to="258747562#0"/>
    </person>
    <person id="227" depart="22.70" type="pedType1">
        <walk from="93072400#1" to="258139179"/>
    </person>
    <person id="228" depart="22.80" type="pedType1">
        <walk from="346040138" to="374541980"/>
    </person>
    <person id="229" depart="22.90" type="pedType1">
        <walk from="346040139" to="371746586#2"/>
    </person>
    <person id="230" depart="23.00" type="pedType1">
        <walk from="476035150" to="193703018#2"/>
    </person>
    <person id="231" depart="23.10" type="pedType1">
        <walk from="-308384337#1" to="105289332#4"/>
    </person>
    <person id="232" depart="23.20" type="pedType1">
        <walk from="105289324#1" to="346040144#0"/>
    </person>
    <person id="233" depart="23.30" type="pedType1">
        <walk from="258747565#1" to="193703019#3"/>
    </person>
    <person id="234" depart="23.40" type="pedType1">
        <walk from="346040148#1" to="371746586#5"/>
    </person>
    <person id="235" depart="23.50" type="pedType1">
        <walk from="132787789" to="308384344#0"/>
    </person>
    <person id="236" depart="23.60" type="pedType1">
        <walk from="371076643#1" to="105289323#2"/>
    </person>
    <person id="237" depart="23.70" type="pedType1">
        <walk from="374541988#0" to="618310626"/>
    </person>
    <person id="238" depart="23.80" type="pedType1">
        <walk from="105289323#0" to="-308384337#2"/>
    </person>
    <person id="239" depart="23.90" type="pedType1">
        <walk from="252700829" to="346040145#0"/>
    </person>
    <person id="240" depart="24.00" type="pedType1">
        <walk from="533368697#2" to="258139196"/>
    </person>
    <person id="241" depart="24.10" type="pedType1">
        <walk from="346040149" to="-86414054#0"/>
    </person>
    <person id="242" depart="24.20" type="pedType1">
        <walk from="346040147#0" to="332176208#1"/>
    </person>
    <person id="243" depart="24.30" type="pedType1">
        <walk from="105289322" to="371746586#7"/>
    </person>
    <person id="244" depart="24.40" type="pedType1">
        <walk from="378298816" to="308384337#1"/>
    </person>
    <person id="245" depart="24.50" type="pedType1">
        <walk from="105289324#0" to="86414054#0"/>
    </person>
    <person id="246" depart="24.60" type="pedType1">
        <walk from="374541981" to="258139178"/>
    </person>
    <person id="247" depart="24.70" type="pedType1">
        <walk from="258747528#3" to="258139186"/>
    </person>
    <person id="248" depart="24.80" type="pedType1">
        <walk from="378298812#8" to="374541988#3"/>
    </person>
    <person id="249" depart="24.90" type="pedType1">
        <walk from="105289323#0" to="5785422"/>
    </person>
    <person id="250" depart="25.00" type="pedType1">
        <walk from="33487028#2" to="374541989#1"/>
    </person>
    <person id="251" depart="25.10" type="pedType1">
        <walk from="346040148#3" to="258747528#5"/>
    </person>
    <person id="252" depart="25.20" type="pedType1">
        <walk from="371076637" to="618310626"/>
    </person>
    <person id="253" depart="25.30" type="pedType1">
        <walk from="24039836#2" to="374541986#1"/>
    </person>