<?xml version="1.0" encoding="UTF-8"?>

<!-- generated on 2021-11-25 14:53:01 by Eclipse SUMO duarouter Version v1_9_2+0043-66864b7fc8
<configuration xmlns:xsi="http://www.w3.org/2001/XMLSchema-instance" xsi:noNamespaceSchemaLocation="http://sumo.dlr.de/xsd/duarouterConfiguration.xsd">

    <input>
        <net-file value="../munich.net.xml"/>
        <additional-files value="trip_custom.xml"/>
        <route-files value="ubahn_mfreiheit_300.trips.xml"/>
    </input>

    <output>
        <output-file value="ubahn_mfreiheit_300.rou.xml"/>
        <alternatives-output value="ubahn_mfreiheit_300.rou.alt.xml"/>
    </output>

    <processing>
        <remove-loops value="true"/>
    </processing>

    <time>
        <begin value="0"/>
        <end value="30"/>
    </time>

    <report>
        <verbose value="true"/>
        <ignore-errors value="true"/>
        <no-step-log value="true"/>
    </report>

</configuration>
-->

<routes xmlns:xsi="http://www.w3.org/2001/XMLSchema-instance" xsi:noNamespaceSchemaLocation="http://sumo.dlr.de/xsd/routes_file.xsd">
    <vType id="pedType1" maxSpeed="1.40" speedFactor="normc(1.00,0.19,0.14,1.43)"/>
    <person id="0" type="pedType1" depart="0.00">
        <walk edges="33487028#3 33487028#2 -33487028#1 24039836#0 24039836#1 374541989#3 374541989#2 374541989#1 374541989#0 258747528#0 258747528#1 258747528#2 258747528#3 258747528#4 258747528#5 258747528#6 265278402#4 -533368697#1 533368697#2 -308384337#2"/>
    </person>
    <person id="1" type="pedType1" depart="0.10">
        <walk edges="371076637 24039836#3 24039836#2 374541989#3 374541989#2 374541989#1 374541989#0 105289322 258139196 105289324#0 105289324#1 258747552 346040140 105289323#3 105289323#2 346040143 409721066 346040145#0"/>
    </person>
    <person id="2" type="pedType1" depart="0.20">
        <walk edges="378298913#6 378298913#7 378298913#8 193703019#0 332176203 265278402#4 258747528#6 258747528#5 258747528#4 258747528#3 258747528#2 258747528#1 258747528#0 374541989#0 374541989#1 374541989#2 374541989#3 24039836#1 24039836#0 93072400#1 258139184 258747542 105289332#2 105289332#1 258139198 258139175 100024661#0"/>
    </person>
    <person id="3" type="pedType1" depart="0.30">
        <walk edges="258747528#2 258747528#1 258747528#0 374541989#0 374541989#1 374541989#2 374541989#3 24039836#1 24039836#0 -33487028#1 33487028#2 -33487028#3 -33487028#4 252700829 252700830#0 251805203#0 618310626 -31344484"/>
    </person>
    <person id="4" type="pedType1" depart="0.40">
        <walk edges="196055608#0 24039836#2 374541989#3 374541989#2 374541989#1 374541989#0 105289322 258139196 105289324#0 105289324#1 258747552 346040140 105289323#3 258747553"/>
    </person>
    <person id="5" type="pedType1" depart="0.50">
        <walk edges="-31344484 618310626 251805203#0 252700830#0 252700829 -33487028#4 -33487028#3 33487028#2 -33487028#1 24039836#0 24039836#1 374541989#3 374541989#2 374541989#1 374541989#0 258747528#0 258747528#1 258747528#2 258747528#3 258747528#4 258747528#5 258747528#6 265278402#4 157964862#4"/>
    </person>
    <person id="6" type="pedType1" depart="0.60">
        <walk edges="196055608#0 24039836#2 24039836#1 24039836#0 -157964859#0 33487027 300958409#1"/>
    </person>
    <person id="7" type="pedType1" depart="0.70">
        <walk edges="374541987#0 332176203 193703019#0 378298913#8 378298913#7 378298913#6 378298913#5 378298913#4 378298913#3 378298913#2 378298913#1 193703019#3 24039836#8 196055609 -155546691"/>
    </person>
    <person id="9" type="pedType1" depart="0.90">
        <walk edges="258139176 258139200#0 93072400#1 258139184 258747542 105289332#3 105289332#4 105289335"/>
    </person>
    <person id="10" type="pedType1" depart="1.00">
        <walk edges="533368697#2 533368697#1 265278402#4 258747528#6 258747528#5 258747528#4 258747528#3 258747528#2 258747528#1 258747528#0 374541989#0 374541989#1 374541989#2 374541989#3 24039836#1 24039836#0 93072400#1 258139184 258747542 105289332#2 105289332#1 258139198 258139175"/>
    </person>
    <person id="11" type="pedType1" depart="1.10">
        <walk edges="100024661#1 100024661#0 258139175 258139198 105289332#1 105289332#2 258747542 258139184 93072400#1 258139200#0 258139176 258747554 346040148#3 258139189 258139186 100024668"/>
    </person>
    <person id="12" type="pedType1" depart="1.20">
        <walk edges="378298812#8 193703019#0 332176203 -533368697#1 533368697#2 -308384337#2 308384337#2"/>
    </person>
    <person id="14" type="pedType1" depart="1.40">
        <walk edges="258747560#1 258747539 258747553 105289323#3 346040142 258747531 346040148#2 258747554 258139176 258139200#0 -33487028#1 33487028#2 -33487028#3 -33487028#4 252700829 23968589#2 618310630"/>
    </person>
    <person id="15" type="pedType1" depart="1.50">
        <walk edges="374541989#1 374541989#2 374541989#3 24039836#1 24039836#0 -33487028#1 33487028#2 -33487028#3 -33487028#4 252700829 252700830#0 252700830#1 618310628 332176204"/>
    </person>
    <person id="16" type="pedType1" depart="1.60">
        <walk edges="378298840 24039836#5 24039836#4 24039836#3 24039836#2 374541989#3 374541989#2 374541989#1 265278402#2"/>
    </person>
    <person id="17" type="pedType1" depart="1.70">
        <walk edges="346040148#2 258747554 258139176 258139200#0 -33487028#1 33487028#2 -33487028#3"/>
    </person>
    <person id="18" type="pedType1" depart="1.80">
        <walk edges="214785685#0 24039836#0 24039836#1 24039836#2 24039836#3 24039836#4 24039836#5 24039836#6 24039836#7"/>
    </person>
    <person id="19" type="pedType1" depart="1.90">
        <walk edges="-86414054#1 -33487028#4 -33487028#3 33487028#2 -33487028#1 214785685#0 214785685#1"/>
    </person>
    <person id="20" type="pedType1" depart="2.00">
        <walk edges="100024671 374541989#0 374541989#1 374541989#2 374541989#3 24039836#2 24039836#3 24039836#4"/>
    </person>
    <person id="21" type="pedType1" depart="2.10">
        <walk edges="33487028#2 -33487028#1 93072400#1 258139184"/>
    </person>
    <person id="22" type="pedType1" depart="2.20">
        <walk edges="258139186 258139189 346040148#3 346040148#2 258747531 346040142 105289323#3 105289323#2 346040146 193703018#4"/>
    </person>
    <person id="23" type="pedType1" depart="2.30">
        <walk edges="24039836#2 374541989#3 374541989#2 374541989#1 374541989#0 105289322 258139196 105289324#0 105289324#1 258747552 346040140 105289323#3 105289323#2 346040143 346040138 258747563#1 409721064"/>
    </person>
    <person id="24" type="pedType1" depart="2.40">
        <walk edges="346040138 346040143 105289323#2 105289323#3 346040140 258747552 105289324#1 105289324#0 258139196 105289322 258747528#0 258747528#1 258747528#2 258747528#3 258747528#4 258747528#5 258747528#6 265278402#4 -533368697#1 533368697#2 -308384337#2 308384352"/>
    </person>
    <person id="25" type="pedType1" depart="2.50">
        <walk edges="132787788 105289327 105469274#1 346040146 105289323#2 105289323#3 346040142 258747531 346040148#2 346040148#3 258139189"/>
    </person>
    <person id="26" type="pedType1" depart="2.60">
        <walk edges="86414061 -86414054#0 251805202 23968589#2 252700829 -33487028#4 33487028#3"/>
    </person>
    <person id="27" type="pedType1" depart="2.70">
        <walk edges="378298810#6 378298801 193703019#0 332176203 265278402#4 258747528#6 258747528#5 258747528#4 258747528#3 258747528#2 258747528#1 258747528#0 374541989#0 374541989#1 374541989#2 374541989#3 24039836#1 24039836#0 371746586#6 371746586#7 371746586#8"/>
    </person>
    <person id="28" type="pedType1" depart="2.80">
        <walk edges="214785685#0 -33487028#1 33487028#2 -33487028#3 -33487028#4 252700829 252700830#0 252700830#1 618310628 -332176204"/>
    </person>
    <person id="29" type="pedType1" depart="2.90">
        <walk edges="252700830#0 252700829 -33487028#4 -33487028#3 33487028#2 -33487028#1 24039836#0 24039836#1 24039836#2"/>
    </person>
    <person id="30" type="pedType1" depart="3.00">
        <walk edges="193703019#2 378298801 378298810#6 193703018#3 193703018#4 346040146 346040143 409721066"/>
    </person>
    <person id="31" type="pedType1" depart="3.10">
        <walk edges="378298913#2 378298913#1 193703019#3 24039836#8 196055609 155546691 86414061 -86414054#0 251805202 23968589#2 252700830#0"/>
    </person>
    <person id="32" type="pedType1" depart="3.20">
        <walk edges="378298925#13 378298840 24039836#5 24039836#4 24039836#3 24039836#2 374541989#3 374541989#2 374541989#1 374541989#0 105289322 258139196 105289324#0 105289324#1 258747552 346040140 105289323#3 105289323#2 105289323#1 258747536"/>
    </person>
    <person id="33" type="pedType1" depart="3.30">
        <walk edges="24039836#1 24039836#0 -33487028#1 33487028#2 -33487028#3 -33487028#4 252700829 23968589#2"/>
    </person>
    <person id="34" type="pedType1" depart="3.40">
        <walk edges="258747565#0 346040141 258747538#1 346040145#0 409721066 346040143 105289323#2 105289323#3 346040142 258747531 346040148#2 258747554 258139176 258139200#0 24039836#0"/>
    </person>
    <person id="35" type="pedType1" depart="3.50">
        <walk edges="265278402#4 332176203 193703019#0 378298913#8 378298913#7"/>
    </person>
    <person id="36" type="pedType1" depart="3.60">
        <walk edges="258139198 105289332#1 105289332#2 258747542 258139184 93072400#1 24039836#0 24039836#1 24039836#2 196055608#0"/>
    </person>
    <person id="37" type="pedType1" depart="3.70">
        <walk edges="93072400#1 258139200#0 258139176 258747554"/>
    </person>
    <person id="38" type="pedType1" depart="3.80">
        <walk edges="100024661#1 100024661#0 258139175 258139198 105289332#1 105289332#2 258747542 258139184 93072400#1 -33487028#1 33487028#2 -33487028#3"/>
    </person>
    <person id="39" type="pedType1" depart="3.90">
        <walk edges="-533368701 371076643#1 33487027 -157964859#0 258139200#0 258139176 258747554 346040148#2 346040148#1 346040148#0 258139182 258139192"/>
    </person>
    <person id="40" type="pedType1" depart="4.00">
        <walk edges="618310630 23968589#2 252700829 -33487028#4 -33487028#3 33487028#2 -33487028#1 24039836#0 24039836#1 374541989#3 374541989#2 374541989#1 374541989#0 258747528#0 258747528#1 258747528#2 258747528#3 258747528#4 258747528#5 258747528#6 265278402#4 332176203 193703019#0 378298925#6 378298837"/>
    </person>
    <person id="41" type="pedType1" depart="4.10">
        <walk edges="-157964859#0 371746586#6 364876165"/>
    </person>
    <person id="42" type="pedType1" depart="4.20">
        <walk edges="346040145#1 409721066 346040143 105289323#2 258747553 258747539 258747560#1"/>
    </person>
    <person id="43" type="pedType1" depart="4.30">
        <walk edges="24039836#1 24039836#0 -33487028#1 33487028#2 33487028#3"/>
    </person>
    <person id="44" type="pedType1" depart="4.40">
        <walk edges="105289323#1 105289323#2 105289323#3 346040140 258747552 105289324#1 105289324#0 258139196 105289322 258747528#0 258747528#1 258747528#2 258747528#3 258747528#4 258747528#5"/>
    </person>
    <person id="45" type="pedType1" depart="4.50">
        <walk edges="258747531 346040142 346040140 258747552 105289324#1 105289324#0 258139196 105289322 258747528#0 258747528#1 258747528#2 258747528#3 258747528#4 258747528#5 258747528#6 265278402#4 533368697#1"/>
    </person>
    <person id="46" type="pedType1" depart="4.60">
        <walk edges="378298913#1 24039835#0 24039836#6 24039836#5 24039836#4 24039836#3 24039836#2 24039836#1"/>
    </person>
    <person id="47" type="pedType1" depart="4.70">
        <walk edges="258747552 105289324#1 105289324#0 258139196 105289322 374541989#0 374541989#1 374541989#2 374541989#3 24039836#2 196055608#1 -155546685 155548876"/>
    </person>
    <person id="48" type="pedType1" depart="4.80">
        <walk edges="251805202 23968589#2 252700829 -33487028#4 -33487028#3 33487028#2"/>
    </person>
    <person id="49" type="pedType1" depart="4.90">
        <walk edges="308384344#0 371746586#1 371746586#2 371746586#3 533368697#1 265278402#4 258747528#6 258747528#5 258747528#4 258747528#3 258747528#2 258747528#1 258747528#0 374541989#0 374541989#1 374541989#2 374541989#3 24039836#1 24039836#0 93072400#1 258139184 258747542 105289332#3 105289332#4"/>
    </person>
    <person id="50" type="pedType1" depart="5.00">
        <walk edges="371746586#4 533368697#1 265278402#4 258747528#6 258747528#5 258747528#4 258747528#3 258747528#2 258747528#1 258747528#0 105289322 258139196 105289324#0 105289324#1 258747552 346040140 105289323#3 105289323#2 346040143 346040138 258747563#1 409721064 258747550 258747562#0"/>
    </person>
    <person id="51" type="pedType1" depart="5.10">
        <walk edges="374541980 258747528#3 258747528#2 258747528#1 258747528#0 105289322 258139196 105289324#0 105289324#1 258747552 346040140 105289323#3 258747553 258747539 258747560#0"/>
    </person>
    <person id="52" type="pedType1" depart="5.20">
        <walk edges="-155546685 196055608#1 24039836#2 24039836#1 254945241#1"/>
    </person>
    <person id="53" type="pedType1" depart="5.30">
        <walk edges="-308384337#1 -308384337#2 533368697#2 533368697#1 332176203 193703019#0 378298925#6 378298925#7 378298925#8 378298925#9"/>
    </person>
    <person id="54" type="pedType1" depart="5.40">
        <walk edges="378298913#2 24039835#0 24039836#6 24039836#5 24039836#4 24039836#3 24039836#2 374541989#3 374541989#2"/>
    </person>
    <person id="55" type="pedType1" depart="5.50">
        <walk edges="251805203#1 252700830#0 252700829 -33487028#4 -33487028#3 33487028#2 -33487028#1 -157964859#0 33487027 371076643#1 307181259#1 -533368700"/>
    </person>
    <person id="56" type="pedType1" depart="5.60">
        <walk edges="378298913#2 24039835#0 24039836#6 24039836#5 24039836#4 24039836#3 24039836#2 24039836#1 24039836#0 -33487028#1 33487028#2 445043199"/>
    </person>
    <person id="57" type="pedType1" depart="5.70">
        <walk edges="-86414061 -155546685 196055608#1 24039836#2 374541989#3 374541989#2 374541989#1 374541989#0 105289322 258139196 105289324#0 105289324#1 258747552 346040140 105289323#3 105289323#2 346040143 346040138 258747563#1 258747548"/>
    </person>
    <person id="58" type="pedType1" depart="5.80">
        <walk edges="-5785422 618310628 252700830#1 252700830#0 252700829 -33487028#4 -33487028#3 33487028#2 -33487028#1 24039836#0 24039836#1 374541989#3 374541989#2 374541989#1 374541989#0 258747528#0 258747528#1 258747528#2 258747528#3 258747528#4 258747528#5 258747528#6 265278402#4 -533368697#1 371746586#4"/>
    </person>
    <person id="59" type="pedType1" depart="5.90">
        <walk edges="371746586#5 258139200#0 258139176 258747554 346040148#2 258747531 346040142 105289323#3 105289323#2 346040146 105469274#1 105289327"/>
    </person>
    <person id="60" type="pedType1" depart="6.00">
        <walk edges="258747540 378298925#10 378298925#9 378298925#8 378298925#7 378298925#6 378298801 378298810#6 193703018#3 193703018#4 346040146 346040143 346040138 258747563#0"/>
    </person>
    <person id="61" type="pedType1" depart="6.10">
        <walk edges="24039836#1 24039836#2 24039836#3 24039836#4 24039836#5 24039836#6 24039835#0 378298913#1"/>
    </person>
    <person id="62" type="pedType1" depart="6.20">
        <walk edges="258747528#2 258747528#3 258747528#4 258747528#5 258747528#6 265278402#4 332176203 193703019#0 193703019#2"/>
    </person>
    <person id="63" type="pedType1" depart="6.30">
        <walk edges="258747562#0 258747550 409721064 258747563#1 346040138 346040143 105289323#2 105289323#3 346040140 258747552 105289324#1 105289324#0 258139196 105289322 258747528#0 258747528#1 258747528#2 258747528#3 258747528#4 258747528#5 258747528#6 265278402#4 -533368697#1 371746586#3 371076635"/>
    </person>
    <person id="64" type="pedType1" depart="6.40">
        <walk edges="193703018#2 378298801 193703019#0 332176203 265278402#4 258747528#6 258747528#5 258747528#4 258747528#3 258747528#2 258747528#1 258747528#0 374541989#0 374541989#1 374541989#2 374541989#3 24039836#1 24039836#0 -33487028#1 33487028#2 -33487028#3 -33487028#4 252700829"/>
    </person>
    <person id="65" type="pedType1" depart="6.50">
        <walk edges="258747528#6 258747528#5 258747528#4 258747528#3 258747528#2 258747528#1 258747528#0 105289322 258139196 105289324#0 105289324#1 258747552 346040140 105289323#3 105289323#2 346040143 346040138 258747563#0 258747546 258747555#1"/>
    </person>
    <person id="66" type="pedType1" depart="6.60">
        <walk edges="105289324#0 258139196 105289322 374541989#0 374541989#1 374541989#2 374541989#3 24039836#2 196055608#1"/>
    </person>
    <person id="67" type="pedType1" depart="6.70">
        <walk edges="258139175 258139198 105289332#1 105289332#2 258747542 258139184 93072400#1 -157964859#0 33487027 300958409#1"/>
    </person>
    <person id="68" type="pedType1" depart="6.80">
        <walk edges="214785685#1 214785685#0 24039836#0 24039836#1 24039836#2 196055608#0"/>
    </person>
    <person id="69" type="pedType1" depart="6.90">
        <walk edges="-5785422 618310628 252700830#1 252700830#0 252700829 -33487028#4 -33487028#3 33487028#2 -33487028#1 -157964859#0 33487027"/>
    </person>
    <person id="70" type="pedType1" depart="7.00">
        <walk edges="214785685#0 24039836#0 24039836#1 374541989#3 374541989#2 374541989#1 374541989#0 258747528#0 258747528#1 258747528#2 258747528#3 258747528#4 258747528#5 258747528#6 265278402#4 332176203 193703019#0 378298925#6 378298925#7 378298925#8 378298925#9 378298925#10"/>
    </person>
    <person id="71" type="pedType1" depart="7.10">
        <walk edges="378298837 378298925#6 193703019#0 332176203 265278402#4 258747528#6 258747528#5 258747528#4 258747528#3 258747528#2 258747528#1 258747528#0 374541989#0 374541989#1 374541989#2 374541989#3 24039836#1 24039836#0 -33487028#1 33487028#2 -33487028#3 -33487028#4 252700829 252700830#0 252700830#1 618310628 -5785422"/>
    </person>
    <person id="72" type="pedType1" depart="7.20">
        <walk edges="23968589#0 252700830#1 252700830#0 252700829 -33487028#4 -33487028#3 33487028#2 -33487028#1 258139200#0 258139176 258747554 346040148#2 258747531 346040142 105289323#3 105289323#2 346040143"/>
    </person>
    <person id="73" type="pedType1" depart="7.30">
        <walk edges="193703019#2 193703019#0 332176203 265278402#4 258747528#6 258747528#5 258747528#4 258747528#3 258747528#2 258747528#1 258747528#0 374541989#0 374541989#1 374541989#2 374541989#3 24039836#1 24039836#0 93072400#1 258139184 258747542 105289332#2 105289332#1 105289332#0 105289331"/>
    </person>
    <person id="74" type="pedType1" depart="7.40">
        <walk edges="378298928#1 258747564 258747556 193703018#4 346040146 346040143 409721066 346040145#0 258747538#1 346040141 258747565#1 258747565#2"/>
    </person>
    <person id="75" type="pedType1" depart="7.50">
        <walk edges="100024668 258139186 258139189 346040148#3 258747554 258139176 258139200#0 24039836#0 24039836#1 374541989#3 374541989#2 374541989#1 374541989#0 258747528#0 258747528#1 258747528#2 258747528#3 258747528#4"/>
    </person>
    <person id="76" type="pedType1" depart="7.60">
        <walk edges="258747528#2 258747528#1 258747528#0 105289322 258139196 105289324#0 105289324#1 258747552 346040140 105289323#3 105289323#2 346040143 409721066 346040145#0 258747538#1"/>
    </person>
    <person id="77" type="pedType1" depart="7.70">
        <walk edges="371076634 258139200#0 258139176 258747554 346040148#2 258747531 346040142 105289323#3 105289323#2 346040143 409721066 346040145#1 346040139 346040144#1"/>
    </person>
    <person id="78" type="pedType1" depart="7.80">
        <walk edges="86414054#0 -155546685 196055608#1 24039836#2 374541989#3 374541989#2 374541989#1 374541989#0 100024671"/>
    </person>
    <person id="79" type="pedType1" depart="7.90">
        <walk edges="378298840 24039836#5 24039836#4 24039836#3 24039836#2 24039836#1 24039836#0 -33487028#1 33487028#2 -33487028#3 -33487028#4 252700829 23968589#2 23968589#3"/>
    </person>
    <person id="80" type="pedType1" depart="8.00">
        <walk edges="157964862#0 265278402#4 258747528#6 258747528#5 258747528#4 258747528#3 258747528#2 258747528#1 258747528#0 374541989#0 374541989#1 374541989#2 374541989#3 24039836#2 24039836#3 24039836#4 258747530"/>
    </person>
    <person id="81" type="pedType1" depart="8.10">
        <walk edges="258747528#2 258747528#1 258747528#0 374541989#0 374541989#1 374541989#2 374541989#3 24039836#2 24039836#3 24039836#4 24039836#5"/>
    </person>
    <person id="82" type="pedType1" depart="8.20">
        <walk edges="23968589#3 23968589#2 252700829 -33487028#4 -33487028#3 33487028#2 -33487028#1 24039836#0 24039836#1 374541989#3 374541989#2 374541989#1 374541989#0 258747528#0 258747528#1 258747528#2 258747528#3 258747528#4 258747528#5 258747528#6 265278402#4 332176203 193703019#0 378298925#6 378298925#7"/>
    </person>
    <person id="83" type="pedType1" depart="8.30">
        <walk edges="258747528#7 258747528#6 258747528#5 258747528#4 258747528#3 258747528#2 258747528#1 258747528#0 374541989#0 374541989#1 374541989#2 374541989#3 24039836#2 24039836#3 24039836#4 24039836#5 378298840"/>
    </person>
    <person id="84" type="pedType1" depart="8.40">
        <walk edges="258747563#0 346040138 346040143 105289323#2 105289323#3 346040142 258747531 346040148#2 258747554 258139176 258139200#0 -33487028#1 33487028#2 -33487028#3 -33487028#4"/>
    </person>
    <person id="85" type="pedType1" depart="8.50">
        <walk edges="93072400#1 24039836#0 24039836#1 374541989#3"/>
    </person>
    <person id="86" type="pedType1" depart="8.60">
        <walk edges="618310628 252700830#1 252700830#0 252700829 -33487028#4 -33487028#3 33487028#2 -33487028#1 24039836#0 24039836#1 374541989#3 374541989#2 374541989#1 374541989#0 258747528#0 258747528#1 258747528#2 258747528#3 258747528#4 258747528#5 258747528#6 265278402#4 332176203 193703019#0 378298925#6 378298925#7 378298925#8"/>
    </person>
    <person id="87" type="pedType1" depart="8.70">
        <walk edges="378298812#8 193703019#0 332176203 265278402#4 258747528#6 258747528#5 258747528#4 258747528#3 258747528#2 258747528#1 258747528#0 374541989#0 374541989#1 374541989#2 374541989#3 24039836#1 24039836#0 258139200#0 258139176 258747554 346040148#3 346040148#4 132787789"/>
    </person>
    <person id="88" type="pedType1" depart="8.80">
        <walk edges="258747548 258747563#1 346040138 346040143 346040146 193703018#4 193703018#3 378298810#6 378298801 193703019#2"/>
    </person>
    <person id="89" type="pedType1" depart="8.90">
        <walk edges="258139198 105289332#1 105289332#2 258747542 258139184 93072400#1 -157964859#0 33487027 371076643#1 307181259#1 -533368700"/>
    </person>
    <person id="90" type="pedType1" depart="9.00">
        <walk edges="258139189 346040148#3 258747554 258139176 258139200#0 -33487028#1 33487028#2 -33487028#3 -33487028#4 252700829 23968589#2 251805202 86414054#1"/>
    </person>
    <person id="91" type="pedType1" depart="9.10">
        <walk edges="258747533 346040147#1 346040140 258747552 105289324#1 105289324#0 258139196 105289322 258747528#0 258747528#1 258747528#2"/>
    </person>
    <person id="92" type="pedType1" depart="9.20">
        <walk edges="533368697#2 533368697#1 265278402#4 258747528#6 258747528#5 258747528#4 258747528#3 258747528#2 258747528#1 258747528#0 374541989#0 374541989#1 374541989#2 374541989#3 24039836#1 24039836#0 371746586#6 371746586#7 93072400#0"/>
    </person>
    <person id="93" type="pedType1" depart="9.30">
        <walk edges="258747563#1 346040138 346040143 105289323#2 105289323#3 346040142 258747531 346040148#2 258747554 258139176 258139200#0 371746586#6 364876165"/>
    </person>
    <person id="94" type="pedType1" depart="9.40">
        <walk edges="618310628 252700830#1 252700830#0 252700829 -33487028#4 -33487028#3 33487028#2 -33487028#1 24039836#0 24039836#1 374541989#3 374541989#2 374541989#1 374541989#0 258747528#0 265278402#3"/>
    </person>
    <person id="95" type="pedType1" depart="9.50">
        <walk edges="258747562#1 258747550 409721064 258747563#1 346040138 346040143 105289323#2 105289323#3 346040142 258747531 346040148#2 258747554 258139176 258139200#0 -157964859#0 33487027 371076643#1"/>
    </person>
    <person id="96" type="pedType1" depart="9.60">
        <walk edges="-533368700 307181259#1 371076643#1 33487027 -157964859#0 24039836#0 24039836#1 374541989#3 374541989#2 374541989#1 374541989#0 258747528#0 258747528#1 258747528#2 258747528#3 258747528#4 258747528#5 258747528#6 265278402#4"/>
    </person>
    <person id="97" type="pedType1" depart="9.70">
        <walk edges="258747552 105289324#1 105289324#0 258139196 105289322 258747528#0 258747528#1 258747528#2 258747528#3 258747528#4 258747528#5 258747528#6 265278402#4 332176203 193703019#0 378298925#6 378298925#7 378298816"/>
    </person>
    <person id="98" type="pedType1" depart="9.80">
        <walk edges="105289335 105289332#4 105289332#3 258747542 258139184 93072400#1 -33487028#1 33487028#2 -33487028#3 -33487028#4 252700829 252700830#0 251805203#0 618310626 5785422"/>
    </person>
    <person id="99" type="pedType1" depart="9.90">
        <walk edges="-86414054#1 -33487028#4 -33487028#3 33487028#2 -33487028#1 24039836#0 24039836#1 374541989#3 374541989#2 374541989#1 374541989#0 258747528#0 258747528#1 258747528#2 258747528#3 258747528#4 258747528#5 258747528#6 265278402#4 157964860#0"/>
    </person>
    <person id="100" type="pedType1" depart="10.00">
        <walk edges="307181260#1 371076643#1 33487027 -157964859#0 258139200#0 258139176 258747554 346040148#2 258747531 346040142 105289323#3 105289323#2 346040143 409721066 346040145#1 346040139 346040144#1"/>
    </person>
    <person id="101" type="pedType1" depart="10.10">
        <walk edges="214785685#2 258139194#1 100024668 258139186 258139189 346040148#3 346040148#2 258747531 346040142 105289323#3"/>
    </person>
    <person id="102" type="pedType1" depart="10.20">
        <walk edges="378298913#5 378298913#6 378298913#7 378298913#8 193703019#0 332176203 265278402#4 258747528#6 258747528#5 258747528#4 258747528#3 258747528#2 258747528#1 258747528#0 374541989#0 374541989#1 374541989#2 374541989#3 24039836#1 24039836#0 -33487028#1 33487028#2 -33487028#3 -33487028#4 252700829 23968589#2"/>
    </person>
    <person id="103" type="pedType1" depart="10.30">
        <walk edges="307181260#1 371076643#1 33487027 -157964859#0 -33487028#1 33487028#2 -33487028#3 -33487028#4 252700829 252700830#0 252700830#1 618310628 332176204"/>
    </person>
    <person id="104" type="pedType1" depart="10.40">
        <walk edges="258747558#0 258747549 258747536 105289323#1 346040146 193703018#4 258747556 258747564 378298928#1"/>
    </person>
    <person id="105" type="pedType1" depart="10.50">
        <walk edges="193703018#3 193703018#4 346040146 105289323#2 105289323#3 346040147#0 346040149"/>
    </person>
    <person id="106" type="pedType1" depart="10.60">
        <walk edges="23968589#0 252700830#1 252700830#0 252700829 -33487028#4 -33487028#3 33487028#2 -33487028#1 258139200#0 258139176 258747554 346040148#2 258747531 346040142 346040140 258747552 105289324#1 105289324#0 258139196"/>
    </person>
    <person id="107" type="pedType1" depart="10.70">
        <walk edges="346040144#0 346040139 346040145#1 409721066 346040143 105289323#2 105289323#3 346040142 258747531 346040148#2 258747554 258139176 258139200#0 -33487028#1 33487028#2 -33487028#3 -33487028#4 252700829 23968589#2 251805202"/>
    </person>
    <person id="108" type="pedType1" depart="10.80">
        <walk edges="252700830#1 252700830#0 252700829 -33487028#4 -33487028#3 33487028#2 -33487028#1 24039836#0 24039836#1 374541989#3 374541989#2 374541989#1 374541989#0 258747528#0 258747528#1 258747528#2 258747528#3 258747528#4 258747528#5 258747528#6 265278402#4 -533368697#1 371746586#3 371746586#2 371746586#1"/>
    </person>
    <person id="109" type="pedType1" depart="10.90">
        <walk edges="-80737020#4 33487027 -157964859#0 258139200#0 258139176 258747554 346040148#2 346040148#1 346040148#0 258747533"/>
    </person>
    <person id="110" type="pedType1" depart="11.00">
        <walk edges="-80737020#4 33487027 -157964859#0 24039836#0 24039836#1 374541989#3 374541989#2 374541989#1 374541989#0 258747528#0 258747528#1 258747528#2 258747528#3 258747528#4 258747528#5 258747528#6 265278402#4 332176203 193703019#0 193703019#2"/>
    </person>
    <person id="111" type="pedType1" depart="11.10">
        <walk edges="24039836#1 24039836#2 24039836#3 24039836#4 258747530 378298928#1"/>
    </person>
    <person id="112" type="pedType1" depart="11.20">
        <walk edges="258139186 258139189 346040148#3 258747554 258139176 258139200#0 93072400#1 258139184 258747542 105289332#3 105289332#4 105289335"/>
    </person>
    <person id="113" type="pedType1" depart="11.30">
        <walk edges="374541989#2 374541989#1 374541989#0 105289322 258139196 105289324#0 105289324#1 258747552 346040140 346040142 258747531 346040148#2"/>
    </person>
    <person id="114" type="pedType1" depart="11.40">
        <walk edges="308384352 -308384337#2 533368697#2 533368697#1 265278402#4 258747528#6 258747528#5 258747528#4 258747528#3 258747528#2 258747528#1 258747528#0 374541989#0 374541989#1 374541989#2 374541989#3 24039836#1 24039836#0 -33487028#1 33487028#2 -33487028#3 -33487028#4 252700829 23968589#2 251805202 86414054#1"/>
    </person>
    <person id="115" type="pedType1" depart="11.50">
        <walk edges="346040139 346040145#1 409721066 346040143 105289323#2 105289323#3 346040142 258747531 346040148#2 258747554 258139176 258139200#0 -33487028#1 33487028#2 -33487028#3 -33487028#4 252700829 252700830#0 252700830#1 618310628 -332176204 -155548876"/>
    </person>
    <person id="116" type="pedType1" depart="11.60">