<?xml version="1.0" encoding="UTF-8"?>

<!-- generated on Wed Feb  3 15:39:35 2021 by Eclipse SUMO duarouter Version 1.0.1
<configuration xmlns:xsi="http://www.w3.org/2001/XMLSchema-instance" xsi:noNamespaceSchemaLocation="http://sumo.dlr.de/xsd/duarouterConfiguration.xsd">

    <input>
        <net-file value="simple.net.xml"/>
        <route-files value="trips.trips.xml"/>
    </input>

    <output>
        <output-file value="simple.rou.xml"/>
        <alternatives-output value="simple.rou.alt.xml"/>
    </output>
    
    <time>
        <begin value="0.0"/>
        <end value="1000.0"/>
    </time>

</configuration>
-->

<routes xmlns:xsi="http://www.w3.org/2001/XMLSchema-instance" xsi:noNamespaceSchemaLocation="http://sumo.dlr.de/xsd/routes_file.xsd">

	<vType id="type1" vClass="pedestrian" speedFactor="normc(1.0,0.186,0.357,1.571)" maxSpeed="1.34"/>

    <person id="0" depart="0.00" type="type1">
        <walk edges="gneE1 gneE3"/>
    </person>
    <person id="1" depart="0.00" type="type1">
        <walk edges="gneE1 gneE3"/>
    </person>
                              
</routes>
