<?xml version="1.0" encoding="UTF-8"?>
<!-- generated on 2021-02-03 15:38:25.937510 by $Id$
  options: -n simple.net.xml -e 1
-->
<routes xmlns:xsi="http://www.w3.org/2001/XMLSchema-instance" xsi:noNamespaceSchemaLocation="http://sumo.dlr.de/xsd/routes_file.xsd">
    <trip id="0" depart="0.00" from="gneE20" to="gneE19"/>
</routes>
