<?xml version="1.0" encoding="UTF-8"?>

<!-- generated on 2022-11-18 11:17:30 by Eclipse SUMO polyconvert Version 1.12.0
<configuration xmlns:xsi="http://www.w3.org/2001/XMLSchema-instance" xsi:noNamespaceSchemaLocation="http://sumo.dlr.de/xsd/polyconvertConfiguration.xsd">

    <input>
        <net-file value="osm.net.xml"/>
        <osm-files value="osm_bbox.osm.xml"/>
        <osm.keep-full-type value="true"/>
        <type-file value="/usr/share/sumo/data/typemap/osmPolyconvert.typ.xml"/>
    </input>

    <output>
        <output-file value="osm.poly.xml"/>
    </output>

    <processing>
        <poi-layer-offset value="5"/>
    </processing>

    <report>
        <verbose value="true"/>
    </report>

</configuration>
-->

<additional xmlns:xsi="http://www.w3.org/2001/XMLSchema-instance" xsi:noNamespaceSchemaLocation="http://sumo.dlr.de/xsd/additional_file.xsd">
    <location netOffset="-689432.88,-5336004.59" convBoundary="-557.75,-422.86,1978.26,1317.13" origBoundary="11.539720,48.145375,11.573934,48.160699" projParameter="+proj=utm +zone=32 +ellps=WGS84 +datum=WGS84 +units=m +no_defs"/>

    <poly id="153191829" type="amenity.bicycle_parking" color="237,199,199" fill="1" layer="-1.00" shape="676.929984,686.306586 675.450623,684.900016 698.034252,661.274150 699.513614,662.680726 676.929984,686.306586"/>
    <poly id="153191830" type="amenity.motorcycle_parking" color="237,199,199" fill="1" layer="-1.00" shape="655.310525,711.166194 653.360001,709.376803 669.631204,691.771465 671.581731,693.560861 655.310525,711.166194"/>
    <poly id="153191831" type="amenity.bicycle_parking" color="237,199,199" fill="1" layer="-1.00" shape="634.159300,662.843700 632.487315,661.408485 649.686567,641.642130 651.358184,643.088464 634.159300,662.843700"/>
    <poly id="158512857" type="building.apartments" color="255,230,230" fill="1" layer="-1.00" shape="487.126255,552.438077 493.880867,557.524538 497.457130,552.959337 508.154912,561.258721 501.239993,568.839373 494.726930,575.977220 478.572938,562.501036 477.826915,561.875450 487.126255,552.438077"/>
    <poly id="163981252" type="man_made.pipeline" color="255,230,230" fill="0" layer="-1.00" shape="-400.494961,-422.857427 -135.263355,236.924566 513.225918,615.666237 648.500820,741.102243 816.722646,887.665165"/>
    <poly id="163981253" type="man_made.pipeline" color="255,230,230" fill="0" layer="-1.00" shape="617.475824,763.379508 648.500820,741.102243"/>
    <poly id="196013324" type="building.college" color="255,230,230" fill="1" layer="-1.00" shape="406.264063,717.119575 425.033746,733.419438 467.695137,770.484153 475.859780,761.131466 487.769467,747.508473 495.686241,738.447976 462.032677,709.225698 453.125309,719.421556 463.797761,728.699117 454.395295,739.457074 440.698278,727.553469 428.158530,716.667424 425.589882,714.434798 430.348903,708.996522 420.689394,700.598245 406.264063,717.119575"/>
    <poly id="25626259" type="building.college" color="255,230,230" fill="1" layer="-1.00" shape="535.087465,585.751849 564.480280,553.017088 573.556912,542.893760 629.216646,481.014605 630.608450,479.458742 643.405348,465.153459 657.467643,478.171146 644.788980,492.502582 619.539646,521.057858 608.648106,533.368226 609.733663,534.305519 613.280034,537.360675 624.160816,525.150091 649.619491,496.568418 657.561786,487.653600 663.853098,493.014134 668.210754,488.463889 670.988063,490.914955 666.846853,495.672663 672.558091,501.013917 616.289585,563.951648 614.542052,565.907348 613.557386,567.309860 616.770568,570.309439 606.118564,582.583267 603.489267,580.159403 571.284059,617.095108 553.431819,601.637455 551.485336,599.948372 535.087465,585.751849"/>
    <poly id="259759829" type="landuse.residential" color="235,235,227" fill="1" layer="-3.00" shape="790.424834,232.748983 683.167286,-11.006137 623.301484,11.736470 538.637370,40.920867 560.273615,90.438234 483.221013,124.526962 408.002180,-27.525966 131.012776,60.590567 -180.788525,141.971190 -156.803509,227.077029 -178.339475,246.112458 -191.762265,261.611477 -194.941044,264.977521 -197.335874,267.601833 -215.962051,289.381663 -284.889424,377.409232 -557.749396,691.670638 -5.513910,1155.359132 -1.133921,1156.616896 48.661239,1098.376818 191.665010,933.994501 240.987785,877.542615 272.611066,904.459898 412.488023,742.437541 384.450445,716.706672 495.075645,577.357298 665.863459,380.619725 752.328034,279.067261 789.953511,235.726188 790.424834,232.748983"/>
    <poly id="259759830" type="landuse.residential" color="235,235,227" fill="0" layer="-3.00" shape="1854.582848,631.023560 1898.693966,715.522940 1943.422027,841.810872 1948.683795,885.212042 1953.964628,946.271026 1964.574588,952.890320 1970.245888,958.710057 1978.255979,1023.176077 1898.890996,1041.224412 1825.413533,1065.545689 1774.902840,1079.832730 1731.103656,1092.219595 1641.495470,1126.807075 1622.234644,1134.240719 1598.589889,1147.446971 1537.369021,1162.613048 1535.792654,1163.005418 1403.188730,1190.952978 1173.820656,1233.232390 1046.386715,1254.039511 1011.563501,1091.429278 1002.140670,1040.224893 955.006035,998.155904 832.457491,888.411448 742.344514,806.273340 664.669114,728.155256 712.654885,676.958569 745.450577,646.685475 789.733475,617.540249 901.617470,573.567461 900.335244,567.806005 1027.868171,519.427826 1011.535521,432.234329 1014.747335,429.014655 1007.225570,390.646378 828.151808,244.540737 848.832027,225.602793 886.159811,183.409486 867.991863,152.364009 859.621137,128.943339 872.675497,-38.001398 892.677141,-125.542377 910.856815,-157.892340 950.798655,-161.113029 1238.236518,-264.786470 1287.194026,-283.336279 1309.111914,-243.741949 1313.472976,-232.292421 1314.253057,-229.785293 1319.899643,-214.910560 1320.926662,-212.217176 1361.423770,-109.329781 1451.241679,-143.236926 1539.497736,-176.938993 1566.062810,-113.589952 1369.880465,-37.885442 1382.681150,-12.280011 1518.243279,332.113702 1711.209625,256.774626 1726.490375,294.758218 1776.699065,427.257938"/>
    <poly id="272446855" type="amenity.university" color="237,199,199" fill="1" layer="-2.00" shape="553.756341,686.172139 546.904037,694.110843 541.277382,689.139676 548.738308,681.032052 553.756341,686.172139"/>
    <poly id="272446855#1" type="building.college" color="255,230,230" fill="1" layer="-1.00" shape="553.756341,686.172139 546.904037,694.110843 541.277382,689.139676 548.738308,681.032052 553.756341,686.172139"/>
    <poly id="272446859" type="amenity.university" color="237,199,199" fill="1" layer="-2.00" shape="550.603443,696.815021 557.643233,689.283087 563.464007,694.460991 556.424215,701.992918 550.603443,696.815021"/>
    <poly id="272446859#1" type="building.college" color="255,230,230" fill="1" layer="-1.00" shape="550.603443,696.815021 557.643233,689.283087 563.464007,694.460991 556.424215,701.992918 550.603443,696.815021"/>
    <poly id="313409055" type="leisure.park" color="207,245,201" fill="1" layer="-2.00" shape="446.155533,673.306623 457.018269,683.358176 470.108685,686.185139 475.078102,680.242092 476.859059,675.261207 477.205655,667.517936 475.646355,663.138136 471.988058,653.592918 470.175496,647.424555 446.155533,673.306623"/>
    <poly id="352842497" type="amenity.bicycle_parking" color="237,199,199" fill="1" layer="-1.00" shape="476.103552,715.478665 477.449536,713.954626 500.543398,734.314753 499.189976,735.838540 476.103552,715.478665"/>
    <poly id="37338539" type="amenity.university" color="237,199,199" fill="1" layer="-2.00" shape="564.335257,715.506889 563.485170,716.669110 553.871116,707.804817 550.982280,705.127577 539.555221,694.589788 537.018194,692.302531 535.820695,691.150138 534.791351,692.106138 524.680650,684.070966 525.688275,682.424433 503.905544,663.153620 500.534614,666.245884 488.339958,655.727207 502.172747,641.367059 507.875745,646.507609 513.441874,651.510105 512.684031,652.808911 534.415313,671.388237 548.010301,655.674051 568.496265,674.312258 587.746314,691.830243 574.658246,706.626607 595.121159,724.830249 597.383179,722.624627 604.960978,729.140477 610.903236,734.244592 596.279393,749.779788 584.199222,739.186808 586.927314,736.173356 564.335257,715.506889"/>
    <poly id="37338539#1" type="building.college" color="255,230,230" fill="1" layer="-1.00" shape="564.335257,715.506889 563.485170,716.669110 553.871116,707.804817 550.982280,705.127577 539.555221,694.589788 537.018194,692.302531 535.820695,691.150138 534.791351,692.106138 524.680650,684.070966 525.688275,682.424433 503.905544,663.153620 500.534614,666.245884 488.339958,655.727207 502.172747,641.367059 507.875745,646.507609 513.441874,651.510105 512.684031,652.808911 534.415313,671.388237 548.010301,655.674051 568.496265,674.312258 587.746314,691.830243 574.658246,706.626607 595.121159,724.830249 597.383179,722.624627 604.960978,729.140477 610.903236,734.244592 596.279393,749.779788 584.199222,739.186808 586.927314,736.173356 564.335257,715.506889"/>
    <poly id="37338826" type="amenity.parking" color="184,184,179" fill="1" layer="-1.00" shape="659.742433,718.033667 657.820666,713.141085 677.612743,690.623920 699.438262,667.184240 702.247922,664.407195 706.489183,660.220270 717.475565,649.982673 728.788408,639.555689 738.018889,631.974452 747.922044,624.537995 759.206105,616.769216 771.065516,609.609280 780.792817,603.880425 791.601097,598.554715 791.431709,603.644779 771.669498,614.502557 749.067054,629.504899 730.898931,643.920528 708.923090,664.039559 702.223443,670.514541 679.632937,695.019113 659.742433,718.033667"/>
    <poly id="374090999" type="amenity.shelter" color="237,199,199" fill="1" layer="-1.00" shape="547.969790,563.037996 549.612818,564.449969 545.958360,568.678761 544.307896,567.266542 547.969790,563.037996"/>
    <poly id="37693940" type="building.dormitory" color="255,230,230" fill="1" layer="-1.00" shape="589.453559,614.272289 598.630594,621.953880 616.578495,636.992079 621.684826,641.267337 618.537002,644.811993 605.688889,659.326999 579.878572,637.374143 576.410727,634.421749 582.964345,627.185206 576.119308,621.016406 563.006601,635.878740 573.332501,645.055978 607.158645,675.130228 638.633414,639.338665 597.290713,605.153638 589.453559,614.272289"/>
    <poly id="392096580" type="amenity.shelter" color="237,199,199" fill="1" layer="-1.00" shape="467.347206,619.393340 471.323926,615.097327 472.552308,616.217354 468.575218,620.524480 467.347206,619.393340"/>
    <poly id="423153578" type="building.college" color="255,230,230" fill="1" layer="-1.00" shape="568.519154,580.899470 572.594710,584.383852 563.472508,594.984079 559.396955,591.499704 568.519154,580.899470"/>
    <poly id="423153579" type="building.college" color="255,230,230" fill="1" layer="-1.00" shape="575.471270,581.608971 584.851575,571.084096 580.526821,567.257643 571.146518,577.782525 575.471270,581.608971"/>
    <poly id="423153582" type="building.college" color="255,230,230" fill="1" layer="-1.00" shape="535.087465,585.751849 564.480280,553.017088 575.789999,563.061467 580.526821,567.257643 571.146518,577.782525 568.519154,580.899470 559.396955,591.499704 551.485336,599.948372 535.087465,585.751849"/>
    <poly id="433685600" type="building.yes" color="255,230,230" fill="1" layer="-1.00" shape="556.866414,630.901617 557.463399,630.187146 558.928727,628.433445 557.139578,626.938730 555.077265,629.406902 556.866414,630.901617"/>
    <poly id="433685600#1" type="man_made.monitoring_station" color="255,230,230" fill="1" layer="-1.00" shape="556.866414,630.901617 557.463399,630.187146 558.928727,628.433445 557.139578,626.938730 555.077265,629.406902 556.866414,630.901617"/>
    <poly id="433685618" type="amenity.fountain" color="237,199,199" fill="1" layer="-1.00" shape="535.350599,600.235460 530.051928,595.920516 534.017064,591.078986 539.315737,595.393934 535.350599,600.235460"/>
    <poly id="450367729" type="amenity.university" color="237,199,199" fill="1" layer="-2.00" shape="703.249861,512.303962 702.323940,511.939385 701.098707,511.620483 684.380236,509.751566 678.997337,509.984203 676.512875,502.981224 595.597161,600.335426 633.940996,633.586275 667.318701,595.655180 692.401931,567.840031 687.673538,564.511864 696.061765,560.095698 690.923390,548.053382 722.166977,533.794410 718.801324,526.650836 703.249861,512.303962"/>
    <poly id="450367729#1" type="landuse.grass" color="194,194,130" fill="1" layer="-3.00" shape="703.249861,512.303962 702.323940,511.939385 701.098707,511.620483 684.380236,509.751566 678.997337,509.984203 676.512875,502.981224 595.597161,600.335426 633.940996,633.586275 667.318701,595.655180 692.401931,567.840031 687.673538,564.511864 696.061765,560.095698 690.923390,548.053382 722.166977,533.794410 718.801324,526.650836 703.249861,512.303962"/>
    <poly id="450367729#2" type="leisure.park" color="207,245,201" fill="1" layer="-2.00" shape="703.249861,512.303962 702.323940,511.939385 701.098707,511.620483 684.380236,509.751566 678.997337,509.984203 676.512875,502.981224 595.597161,600.335426 633.940996,633.586275 667.318701,595.655180 692.401931,567.840031 687.673538,564.511864 696.061765,560.095698 690.923390,548.053382 722.166977,533.794410 718.801324,526.650836 703.249861,512.303962"/>
    <poly id="450396619" type="amenity.university" color="237,199,199" fill="1" layer="-2.00" shape="763.929811,621.354529 795.219017,603.259019 806.214160,599.029902 836.832409,587.009318 835.349441,579.672433 830.731865,575.925043 783.269510,535.716065 736.238053,494.843172 735.719465,495.437849 720.378599,513.029482 692.404504,488.300551 702.086573,476.995940 700.104381,475.261115 686.356993,463.522151 683.251308,460.871016 683.065436,461.087353 678.820652,457.541638 662.424607,476.867356 646.065780,463.283751 640.900171,458.995384 518.574837,597.185759 563.006601,635.878740 576.119308,621.016406 589.453559,614.272289 597.290713,605.153638 638.633414,639.338665 607.158645,675.130228 606.930986,678.171174 656.559791,722.177946 731.288339,644.523160 763.929811,621.354529"/>
    <poly id="460360307" type="landuse.industrial" color="209,209,204" fill="1" layer="-3.00" shape="412.488023,742.437541 272.611066,904.459898 240.987785,877.542615 191.665010,933.994501 280.486251,1008.548485 297.573082,1016.992835 353.962626,1068.319837 417.040051,998.730266 483.320984,926.199240 586.894534,804.563566 515.225344,746.818663 471.834384,797.368459 412.488023,742.437541"/>
    <poly id="460360309" type="landuse.commercial" color="209,209,204" fill="1" layer="-3.00" shape="651.499233,745.407572 586.894534,804.563566 486.792024,927.482800 425.834979,1005.575596 546.956979,1106.184857 590.320557,1148.213996 543.877587,1203.078677 540.363965,1222.788357 653.730179,1317.134469 744.995055,1211.425347 757.297202,1212.847196 806.695983,1155.122999 815.473575,1162.469064 828.363670,1148.245223 849.971044,1166.209882 890.316362,1119.077276 893.612817,1120.232896 904.465495,1089.185595 927.392673,1061.043809 918.921113,1046.742886 934.290852,1022.454919 948.735271,1005.612845 955.006035,998.155904 832.457491,888.411448 742.344514,806.273340 651.499233,745.407572"/>
    <poly id="663331222" type="amenity.motorcycle_parking" color="237,199,199" fill="1" layer="-1.00" shape="542.182401,593.364148 551.472381,601.906109 546.005316,607.810306 541.454050,603.631450 535.608206,609.956980 530.869127,605.605001 542.182401,593.364148"/>
    <poly id="748797545" type="amenity.university" color="237,199,199" fill="1" layer="-2.00" shape="586.894534,804.563566 639.040275,732.999467 502.919820,617.315324 384.450445,716.706672 412.488023,742.437541 471.834384,797.368459 515.225344,746.818663 586.894534,804.563566"/>
    <poly id="819579461" type="natural.tree_row" color="140,196,107" fill="0" layer="-4.00" shape="597.510132,698.652396 638.373622,736.704499 593.154133,791.387130"/>
    <poly id="819579462" type="natural.tree_row" color="140,196,107" fill="0" layer="-4.00" shape="658.668747,744.722543 769.247676,838.744063"/>
    <poly id="819579464" type="natural.tree_row" color="140,196,107" fill="0" layer="-4.00" shape="480.106142,641.612959 503.137716,620.615846 533.755742,646.433051"/>
    <poly id="819579509" type="natural.tree_row" color="140,196,107" fill="0" layer="-4.00" shape="657.820666,713.141085 702.247922,664.407195 743.205042,630.044183 791.601097,598.554715 871.518436,565.288934"/>
    <poly id="97390347" type="building.university" color="255,230,230" fill="1" layer="-1.00" shape="628.724124,684.803650 644.791841,696.152373 649.102931,690.087442 656.006716,680.381534 639.931906,669.021420 636.237850,674.216798 635.706677,674.966827 628.724124,684.803650"/>
    <poly id="97391055" type="building.apartments" color="255,230,230" fill="1" layer="-1.00" shape="763.989479,753.355172 758.388540,759.699757 740.951250,779.457871 738.789561,777.527911 728.009733,767.912454 717.345891,758.389885 682.779275,727.555973 700.152199,707.940182 712.234691,694.289988 722.835573,706.380545 732.023505,698.508614 726.206282,691.661750 713.198565,677.399441 704.381269,686.885872 691.738469,700.595327 675.421076,718.021054 665.778278,728.381286 679.686814,740.403751 693.102932,752.009339 710.105304,766.582511 721.780882,776.350117 734.993874,788.238333 742.635402,794.845508 750.675179,785.455656 760.666946,773.783182 766.700907,766.729820 772.579871,759.860447 779.062917,752.287993 775.981441,748.691891 770.421084,753.368918 763.989479,753.355172"/>
    <poly id="97399424" type="building.university" color="255,230,230" fill="1" layer="-1.00" shape="724.132229,600.938291 722.156470,601.473367 719.544830,601.653513 717.796063,601.183679 716.200832,600.574314 714.675443,599.655747 713.308439,598.675692 711.512207,596.947046 710.513201,595.422935 709.762512,593.595556 709.383605,591.558025 709.401135,589.911964 709.584899,588.416070 710.051619,586.918462 710.607208,585.434937 711.472912,584.028482 713.241718,582.329416 714.831438,581.314203 716.884482,580.470167 716.053626,577.471894 715.899962,576.943861 715.667411,576.101678 723.423845,567.403286 739.788170,577.226747 750.943000,561.932487 738.497001,550.470321 742.073883,546.116675 745.650771,541.763032 759.817824,554.528586 758.995860,555.291182 778.638504,571.076098 777.401285,572.236535 782.955388,579.386217 783.637988,579.008396 784.987944,578.263373 793.157343,584.899292 797.347437,582.924795 820.741378,571.887569 758.978886,527.831701 756.813817,530.251886 756.390219,529.781627 756.537635,528.707312 756.403200,527.601367 755.939708,526.540104 755.061286,525.643052 755.039468,524.284957 743.148216,513.152770 742.279327,513.535524 732.403402,504.706731 719.456550,519.262733 729.797644,528.207113 726.351577,532.209087 722.898078,536.210815 721.036050,534.669119 692.480912,547.782532 698.573964,560.891318 697.627763,561.360515 690.867547,564.729355 694.273760,568.191565 674.980043,589.812941 661.885941,604.553300 651.124932,616.745540 641.705995,627.758569 644.533495,630.489444 643.643197,631.516806 654.702648,641.018992 646.497407,650.459106 646.770283,652.103698 645.953378,653.834436 644.421334,654.907214 642.626618,655.147936 627.155906,672.635329 631.435011,673.801200 635.706677,674.966827 636.237850,674.216798 639.931906,669.021420 656.006716,680.381534 649.102931,690.087442 650.276946,691.049939 646.861879,695.019605 651.237434,698.881184 655.652057,702.910955 696.697142,657.157568 711.051925,641.669281 727.192397,626.885736 725.960568,624.975592 727.025291,624.076430 728.097081,623.188630 732.727450,625.656874 736.575077,619.876984 746.872012,612.464750 757.344203,605.603538 781.120567,592.464947 770.881251,577.782842 769.603772,578.363390 768.127978,576.178096 760.021190,580.636901 760.755390,581.840683 759.830387,582.343953 758.820830,582.032213 757.778980,582.019801 756.811166,582.243497 755.965335,582.604764 755.138897,583.278204 754.650101,584.096390 754.402314,585.278625 753.802998,585.614717 752.171568,584.303202 740.412917,591.566665 731.067246,597.909085 724.716679,602.615503 724.132229,600.938291"/>
    <poly id="97467420" type="building.office" color="255,230,230" fill="1" layer="-1.00" shape="627.324766,789.129825 646.679770,767.432487 639.867726,761.398204 647.600397,752.732317 663.306984,766.650324 682.635921,783.793007 674.972745,792.383277 656.865803,776.327100 650.223049,783.783110 653.694131,786.858052 656.872392,783.292178 665.983691,791.372249 652.142102,806.888817 643.384838,799.132067 646.083562,796.106540 642.721438,793.113108 637.903886,798.515892 627.324766,789.129825"/>
    <poi id="10076369821" type="amenity.cafe" color="237,199,199" layer="4.00" x="635.32" y="680.88"/>
    <poi id="10100163638" type="amenity.toilets" color="237,199,199" layer="4.00" x="656.82" y="679.42"/>
    <poi id="10100163639" type="amenity.toilets" color="237,199,199" layer="4.00" x="683.12" y="608.99"/>
    <poi id="1756415202" type="amenity.telephone" color="237,199,199" layer="4.00" x="511.65" y="620.71"/>
    <poi id="1788304391" type="amenity.telephone" color="237,199,199" layer="4.00" x="524.65" y="606.84"/>
    <poi id="3528516680" type="amenity.bench" color="237,199,199" layer="4.00" x="641.47" y="574.76"/>
    <poi id="3528516684" type="amenity.bench" color="237,199,199" layer="4.00" x="629.74" y="575.41"/>
    <poi id="3528516686" type="amenity.bench" color="237,199,199" layer="4.00" x="658.67" y="576.84"/>
    <poi id="3528517058" type="amenity.bicycle_parking" color="237,199,199" layer="4.00" x="627.09" y="607.90"/>
    <poi id="4228453135" type="amenity.bench" color="237,199,199" layer="4.00" x="630.10" y="595.59"/>
    <poi id="4228453137" type="amenity.bench" color="237,199,199" layer="4.00" x="584.72" y="587.10"/>
    <poi id="4228453138" type="amenity.bench" color="237,199,199" layer="4.00" x="574.71" y="597.71"/>
    <poi id="4228453142" type="amenity.bench" color="237,199,199" layer="4.00" x="578.94" y="592.74"/>
    <poi id="4228453144" type="amenity.bench" color="237,199,199" layer="4.00" x="570.86" y="604.63"/>
    <poi id="4228453149" type="amenity.bench" color="237,199,199" layer="4.00" x="582.97" y="590.83"/>
    <poi id="4322459562" type="natural.tree" color="140,196,107" layer="1.00" x="552.47" y="611.34"/>
    <poi id="4322459581" type="natural.tree" color="140,196,107" layer="1.00" x="536.33" y="610.50"/>
    <poi id="4322459584" type="natural.tree" color="140,196,107" layer="1.00" x="533.28" y="573.29"/>
    <poi id="4322460001" type="natural.tree" color="140,196,107" layer="1.00" x="545.16" y="570.78"/>
    <poi id="4322460013" type="amenity.bicycle_parking" color="237,199,199" layer="4.00" x="627.24" y="690.97"/>
    <poi id="4322460022" type="amenity.bench" color="237,199,199" layer="4.00" x="534.18" y="578.56"/>
    <poi id="4322460041" type="natural.tree" color="140,196,107" layer="1.00" x="525.50" y="602.46"/>
    <poi id="4322460045" type="natural.tree" color="140,196,107" layer="1.00" x="522.37" y="585.45"/>
    <poi id="4322460048" type="amenity.bench" color="237,199,199" layer="4.00" x="549.60" y="618.57"/>
    <poi id="4322460055" type="natural.tree" color="140,196,107" layer="1.00" x="615.82" y="680.51"/>
    <poi id="4322460062" type="amenity.bicycle_parking" color="237,199,199" layer="4.00" x="540.51" y="573.47"/>
    <poi id="4322460083" type="natural.tree" color="140,196,107" layer="1.00" x="535.79" y="578.64"/>
    <poi id="4322460108" type="amenity.bench" color="237,199,199" layer="4.00" x="537.85" y="608.23"/>
    <poi id="4322460112" type="amenity.bench" color="237,199,199" layer="4.00" x="553.64" y="618.09"/>
    <poi id="4322460120" type="natural.tree" color="140,196,107" layer="1.00" x="616.82" y="596.71"/>
    <poi id="4322460135" type="amenity.bench" color="237,199,199" layer="4.00" x="554.04" y="609.42"/>
    <poi id="4322460155" type="amenity.bench" color="237,199,199" layer="4.00" x="526.64" y="601.27"/>
    <poi id="4322460173" type="amenity.bench" color="237,199,199" layer="4.00" x="526.33" y="593.44"/>
    <poi id="4322460177" type="amenity.bench" color="237,199,199" layer="4.00" x="554.26" y="612.82"/>
    <poi id="442006471" type="amenity.parking_entrance" color="237,199,199" layer="4.00" x="651.24" y="698.88"/>
    <poi id="442006817" type="amenity.library" color="237,199,199" layer="4.00" x="590.15" y="651.33"/>
    <poi id="442038660" type="amenity.cafe" color="237,199,199" layer="4.00" x="494.63" y="571.20"/>
    <poi id="442038660#1" type="shop.bakery, pastry" color="237,199,255" layer="4.00" x="494.63" y="571.20"/>
    <poi id="4473242778" type="natural.tree" color="140,196,107" layer="1.00" x="665.36" y="579.98"/>
    <poi id="4473242780" type="amenity.waste_basket" color="237,199,199" layer="4.00" x="665.04" y="579.47"/>
    <poi id="4592525327" type="amenity.bicycle_rental" color="237,199,199" layer="4.00" x="478.13" y="578.39"/>
    <poi id="4868641383" type="amenity.dojo" color="237,199,199" layer="4.00" x="620.92" y="645.09"/>
    <poi id="4868641383#1" type="sport.aikido" color="79,230,125" layer="3.00" x="620.92" y="645.09"/>
    <poi id="4929109732" type="amenity.charging_station" color="237,199,199" layer="4.00" x="631.74" y="704.77"/>
    <poi id="6209062009" type="amenity.bench" color="237,199,199" layer="4.00" x="593.67" y="574.82"/>
    <poi id="6209062010" type="amenity.bench" color="237,199,199" layer="4.00" x="602.88" y="570.34"/>
    <poi id="6387618536" type="amenity.charging_station" color="237,199,199" layer="4.00" x="625.19" y="698.72"/>
    <poi id="6387618537" type="amenity.vending_machine" color="237,199,199" layer="4.00" x="620.21" y="692.20"/>
    <poi id="6387618538" type="amenity.vending_machine" color="237,199,199" layer="4.00" x="605.99" y="675.43"/>
    <poi id="6387618539" type="amenity.vending_machine" color="237,199,199" layer="4.00" x="562.83" y="637.29"/>
    <poi id="6482326563" type="amenity.bench" color="237,199,199" layer="4.00" x="591.85" y="578.76"/>
    <poi id="6482326564" type="amenity.bench" color="237,199,199" layer="4.00" x="594.46" y="579.31"/>
    <poi id="6482326565" type="amenity.bench" color="237,199,199" layer="4.00" x="597.09" y="581.49"/>
    <poi id="6482326574" type="amenity.bench" color="237,199,199" layer="4.00" x="649.62" y="496.57"/>
    <poi id="676782565" type="amenity.post_box" color="237,199,199" layer="4.00" x="564.44" y="638.51"/>
    <poi id="8145553013" type="shop.copyshop" color="237,199,255" layer="4.00" x="501.74" y="564.64"/>
    <poi id="8234052775" type="natural.tree" color="140,196,107" layer="1.00" x="648.91" y="746.29"/>
    <poi id="9597365390" type="amenity.bench" color="237,199,199" layer="4.00" x="505.62" y="641.97"/>
    <poi id="9597365391" type="amenity.bench" color="237,199,199" layer="4.00" x="512.24" y="647.56"/>
</additional>
