<?xml version="1.0" encoding="UTF-8"?>

<!-- generated on 2022-11-18 11:17:30 by Eclipse SUMO netconvert Version 1.12.0
<configuration xmlns:xsi="http://www.w3.org/2001/XMLSchema-instance" xsi:noNamespaceSchemaLocation="http://sumo.dlr.de/xsd/netconvertConfiguration.xsd">

    <input>
        <type-files value="/usr/share/sumo/data/typemap/osmNetconvert.typ.xml"/>
        <osm-files value="osm_bbox.osm.xml"/>
    </input>

    <output>
        <output-file value="osm.net.xml"/>
        <output.street-names value="true"/>
        <output.original-names value="true"/>
    </output>

    <projection>
        <proj.utm value="true"/>
    </projection>

    <processing>
        <geometry.remove value="true"/>
        <roundabouts.guess value="true"/>
    </processing>

    <tls_building>
        <tls.discard-simple value="true"/>
        <tls.join value="true"/>
        <tls.guess-signals value="true"/>
        <tls.default-type value="actuated"/>
    </tls_building>

    <ramp_guessing>
        <ramps.guess value="true"/>
    </ramp_guessing>

    <junctions>
        <junctions.join value="true"/>
        <junctions.corner-detail value="5"/>
    </junctions>

    <report>
        <verbose value="true"/>
        <aggregate-warnings value="5"/>
    </report>

</configuration>
-->

<net version="1.9" junctionCornerDetail="5" limitTurnSpeed="5.50" xmlns:xsi="http://www.w3.org/2001/XMLSchema-instance" xsi:noNamespaceSchemaLocation="http://sumo.dlr.de/xsd/net_file.xsd">

    <location netOffset="-689432.88,-5336004.59" convBoundary="0.00,0.00,1010.94,1155.14" origBoundary="11.547408,48.148799,11.560712,48.159432" projParameter="+proj=utm +zone=32 +ellps=WGS84 +datum=WGS84 +units=m +no_defs"/>

    <type id="highway.bridleway" priority="1" numLanes="1" speed="2.78" allow="pedestrian" oneway="1" width="2.00"/>
    <type id="highway.bus_guideway" priority="1" numLanes="1" speed="27.78" allow="bus" oneway="1"/>
    <type id="highway.cycleway" priority="1" numLanes="1" speed="8.33" allow="bicycle" oneway="0" width="1.00"/>
    <type id="highway.footway" priority="1" numLanes="1" speed="2.78" allow="pedestrian" oneway="1" width="2.00"/>
    <type id="highway.ford" priority="1" numLanes="1" speed="2.78" allow="army" oneway="0"/>
    <type id="highway.living_street" priority="2" numLanes="1" speed="2.78" disallow="tram rail_urban rail rail_electric rail_fast ship" oneway="0"/>
    <type id="highway.motorway" priority="14" numLanes="2" speed="39.44" allow="private emergency authority army vip passenger hov taxi bus coach delivery truck trailer motorcycle evehicle custom1 custom2" oneway="1"/>
    <type id="highway.motorway_link" priority="9" numLanes="1" speed="22.22" allow="private emergency authority army vip passenger hov taxi bus coach delivery truck trailer motorcycle evehicle custom1 custom2" oneway="1"/>
    <type id="highway.path" priority="1" numLanes="1" speed="2.78" allow="pedestrian bicycle" oneway="0" width="2.00"/>
    <type id="highway.pedestrian" priority="1" numLanes="1" speed="2.78" allow="pedestrian" oneway="1" width="2.00"/>
    <type id="highway.primary" priority="12" numLanes="2" speed="27.78" disallow="tram rail_urban rail rail_electric rail_fast ship" oneway="0"/>
    <type id="highway.primary_link" priority="7" numLanes="1" speed="22.22" disallow="tram rail_urban rail rail_electric rail_fast ship" oneway="0"/>
    <type id="highway.raceway" priority="15" numLanes="2" speed="83.33" allow="vip" oneway="0"/>
    <type id="highway.residential" priority="3" numLanes="1" speed="13.89" disallow="tram rail_urban rail rail_electric rail_fast ship" oneway="0"/>
    <type id="highway.secondary" priority="11" numLanes="1" speed="27.78" disallow="tram rail_urban rail rail_electric rail_fast ship" oneway="0"/>
    <type id="highway.secondary_link" priority="6" numLanes="1" speed="22.22" disallow="tram rail_urban rail rail_electric rail_fast ship" oneway="0"/>
    <type id="highway.service" priority="1" numLanes="1" speed="5.56" allow="pedestrian delivery bicycle" oneway="0"/>
    <type id="highway.stairs" priority="1" numLanes="1" speed="1.39" allow="pedestrian" oneway="1" width="2.00"/>
    <type id="highway.step" priority="1" numLanes="1" speed="1.39" allow="pedestrian" oneway="1" width="2.00"/>
    <type id="highway.steps" priority="1" numLanes="1" speed="1.39" allow="pedestrian" oneway="1" width="2.00"/>
    <type id="highway.tertiary" priority="10" numLanes="1" speed="22.22" disallow="tram rail_urban rail rail_electric rail_fast ship" oneway="0"/>
    <type id="highway.tertiary_link" priority="5" numLanes="1" speed="22.22" disallow="tram rail_urban rail rail_electric rail_fast ship" oneway="0"/>
    <type id="highway.track" priority="1" numLanes="1" speed="5.56" allow="pedestrian motorcycle moped bicycle" oneway="0"/>
    <type id="highway.trunk" priority="13" numLanes="2" speed="27.78" disallow="pedestrian bicycle tram rail_urban rail rail_electric rail_fast ship" oneway="0"/>
    <type id="highway.trunk_link" priority="8" numLanes="1" speed="22.22" disallow="pedestrian bicycle tram rail_urban rail rail_electric rail_fast ship" oneway="0"/>
    <type id="highway.unclassified" priority="4" numLanes="1" speed="13.89" disallow="tram rail_urban rail rail_electric rail_fast ship" oneway="0"/>
    <type id="highway.unsurfaced" priority="1" numLanes="1" speed="8.33" disallow="tram rail_urban rail rail_electric rail_fast ship" oneway="0"/>
    <type id="railway.highspeed" priority="21" numLanes="1" speed="69.44" allow="rail_fast" oneway="1"/>
    <type id="railway.light_rail" priority="19" numLanes="1" speed="27.78" allow="rail_urban" oneway="1"/>
    <type id="railway.preserved" priority="16" numLanes="1" speed="27.78" allow="rail" oneway="1"/>
    <type id="railway.rail" priority="20" numLanes="1" speed="44.44" allow="rail" oneway="1"/>
    <type id="railway.subway" priority="18" numLanes="1" speed="27.78" allow="rail_urban" oneway="1"/>
    <type id="railway.tram" priority="17" numLanes="1" speed="13.89" allow="tram" oneway="1"/>

    <edge id=":1282722740_0" function="internal">
        <lane id=":1282722740_0_0" index="0" disallow="tram rail_urban rail rail_electric rail_fast ship" speed="3.65" length="4.67" shape="448.76,558.64 448.38,557.25 448.60,556.39 449.43,556.04 450.86,556.23"/>
    </edge>
    <edge id=":1659064519_0" function="internal">
        <lane id=":1659064519_0_0" index="0" allow="pedestrian delivery bicycle" speed="3.65" length="4.67" shape="680.50,504.82 681.89,505.21 682.52,505.84 682.38,506.73 681.49,507.86"/>
    </edge>
    <edge id=":1659064546_0" function="internal">
        <lane id=":1659064546_0_0" index="0" disallow="pedestrian tram rail_urban rail rail_electric rail_fast ship" speed="13.89" length="9.34" shape="555.23,648.24 548.14,642.17"/>
    </edge>
    <edge id=":1659064546_1" function="internal">
        <lane id=":1659064546_1_0" index="0" allow="delivery bicycle" speed="6.85" length="3.24" shape="555.23,648.24 553.40,646.12 553.26,645.71"/>
    </edge>
    <edge id=":1659064546_7" function="internal">
        <lane id=":1659064546_7_0" index="0" allow="delivery bicycle" speed="6.85" length="6.97" shape="553.26,645.71 552.69,643.93 553.10,641.67 554.64,639.33"/>
    </edge>
    <edge id=":1659064546_2" function="internal">
        <lane id=":1659064546_2_0" index="0" allow="delivery bicycle" speed="5.03" length="5.01" shape="557.04,641.45 556.28,642.59 556.08,643.71 556.43,644.78 557.33,645.82"/>
    </edge>
    <edge id=":1659064546_3" function="internal">
        <lane id=":1659064546_3_0" index="0" allow="delivery bicycle" speed="6.91" length="10.13" shape="557.04,641.45 554.92,643.26 552.73,643.99 550.47,643.62 548.14,642.17"/>
    </edge>
    <edge id=":1659064546_4" function="internal">
        <lane id=":1659064546_4_0" index="0" allow="pedestrian delivery bicycle" speed="3.65" length="4.67" shape="557.04,641.45 555.64,641.81 554.78,641.58 554.45,640.75 554.64,639.33"/>
    </edge>
    <edge id=":1659064546_5" function="internal">
        <lane id=":1659064546_5_0" index="0" allow="delivery bicycle" speed="5.10" length="5.06" shape="550.20,639.72 551.36,640.44 552.48,640.61 553.58,640.24 554.64,639.33"/>
    </edge>
    <edge id=":1659064546_6" function="internal">
        <lane id=":1659064546_6_0" index="0" disallow="pedestrian tram rail_urban rail rail_electric rail_fast ship" speed="13.89" length="9.38" shape="550.20,639.72 557.33,645.82"/>
    </edge>
    <edge id=":1813181976_0" function="internal">
        <lane id=":1813181976_0_0" index="0" allow="pedestrian delivery bicycle" speed="5.56" length="5.17" shape="622.37,569.80 618.93,573.66"/>
    </edge>
    <edge id=":1813181976_1" function="internal">
        <lane id=":1813181976_1_0" index="0" allow="pedestrian delivery bicycle" speed="3.65" length="1.44" shape="622.37,569.80 620.98,570.19"/>
    </edge>
    <edge id=":1813181976_4" function="internal">
        <lane id=":1813181976_4_0" index="0" allow="pedestrian delivery bicycle" speed="3.65" length="3.23" shape="620.98,570.19 620.11,569.97 619.77,569.14 619.95,567.71"/>
    </edge>
    <edge id=":1813181976_2" function="internal">
        <lane id=":1813181976_2_0" index="0" allow="pedestrian delivery bicycle" speed="5.56" length="5.07" shape="616.58,571.49 619.95,567.71"/>
    </edge>
    <edge id=":1813181976_3" function="internal">
        <lane id=":1813181976_3_0" index="0" allow="pedestrian delivery bicycle" speed="3.65" length="1.44" shape="616.58,571.49 617.98,571.15"/>
    </edge>
    <edge id=":1813181976_5" function="internal">
        <lane id=":1813181976_5_0" index="0" allow="pedestrian delivery bicycle" speed="3.65" length="3.23" shape="617.98,571.15 618.84,571.40 619.15,572.24 618.93,573.66"/>
    </edge>
    <edge id=":1813181977_0" function="internal">
        <lane id=":1813181977_0_0" index="0" allow="pedestrian delivery bicycle" speed="5.56" length="5.07" shape="561.89,635.99 558.52,639.77"/>
    </edge>
    <edge id=":1813181977_1" function="internal">
        <lane id=":1813181977_1_0" index="0" allow="pedestrian delivery bicycle" speed="3.65" length="1.44" shape="561.89,635.99 560.49,636.35"/>
    </edge>
    <edge id=":1813181977_4" function="internal">
        <lane id=":1813181977_4_0" index="0" allow="pedestrian delivery bicycle" speed="3.65" length="3.23" shape="560.49,636.35 559.63,636.11 559.30,635.28 559.50,633.85"/>
    </edge>
    <edge id=":1813181977_2" function="internal">
        <lane id=":1813181977_2_0" index="0" allow="pedestrian delivery bicycle" speed="5.56" length="5.08" shape="556.12,637.65 559.50,633.85"/>
    </edge>
    <edge id=":1813181977_3" function="internal">
        <lane id=":1813181977_3_0" index="0" allow="pedestrian delivery bicycle" speed="3.65" length="1.44" shape="556.12,637.65 557.52,637.28"/>
    </edge>
    <edge id=":1813181977_5" function="internal">
        <lane id=":1813181977_5_0" index="0" allow="pedestrian delivery bicycle" speed="3.65" length="3.23" shape="557.52,637.28 558.38,637.51 558.71,638.34 558.52,639.77"/>
    </edge>
    <edge id=":2063858674_0" function="internal">
        <lane id=":2063858674_0_0" index="0" allow="tram" speed="13.89" length="14.38" shape="481.58,615.36 478.95,617.98 476.42,620.57 474.36,623.39 473.12,626.72"/>
    </edge>
    <edge id=":2063858674_1" function="internal">
        <lane id=":2063858674_1_0" index="0" allow="tram" speed="13.89" length="17.96" shape="481.58,615.36 469.14,628.32"/>
    </edge>
    <edge id=":2063858686_0" function="internal">
        <lane id=":2063858686_0_0" index="0" allow="tram" speed="13.89" length="5.22" shape="477.23,686.59 476.41,687.90 475.76,688.74 475.05,689.53 474.02,690.69"/>
    </edge>
    <edge id=":2394230286_0" function="internal">
        <lane id=":2394230286_0_0" index="0" disallow="tram rail_urban rail rail_electric rail_fast ship" speed="13.89" length="5.25" shape="621.47,772.16 617.99,776.09"/>
    </edge>
    <edge id=":2394230286_1" function="internal">
        <lane id=":2394230286_1_0" index="0" disallow="tram rail_urban rail rail_electric rail_fast ship" speed="13.89" length="5.08" shape="615.65,773.91 619.01,770.10"/>
    </edge>
    <edge id=":27479665_0" function="internal">
        <lane id=":27479665_0_0" index="0" disallow="tram rail_urban rail rail_electric rail_fast ship" speed="3.65" length="4.67" shape="521.55,888.37 520.16,888.76 519.29,888.54 518.95,887.71 519.13,886.28"/>
    </edge>
    <edge id=":2773665296_0" function="internal">
        <lane id=":2773665296_0_0" index="0" disallow="pedestrian tram rail_urban rail rail_electric rail_fast ship" speed="3.65" length="4.67" shape="778.19,837.85 778.56,839.24 778.33,840.10 777.50,840.44 776.07,840.25"/>
    </edge>
    <edge id=":2773665389_0" function="internal">
        <lane id=":2773665389_0_0" index="0" allow="pedestrian bicycle" speed="2.78" length="4.88" width="2.00" shape="487.45,627.54 486.46,628.59 485.76,629.29 485.02,629.94 483.90,630.86"/>
    </edge>
    <edge id=":2773665415_0" function="internal">
        <lane id=":2773665415_0_0" index="0" allow="pedestrian delivery bicycle" speed="3.65" length="4.67" shape="473.01,700.96 472.62,699.58 472.83,698.71 473.66,698.36 475.09,698.53"/>
    </edge>
    <edge id=":2773686824_0" function="internal">
        <lane id=":2773686824_0_0" index="0" allow="pedestrian delivery bicycle" speed="3.65" length="4.67" shape="635.35,645.65 636.75,645.29 637.61,645.53 637.93,646.37 637.72,647.79"/>
    </edge>
    <edge id=":2773686834_0" function="internal">
        <lane id=":2773686834_0_0" index="0" allow="pedestrian delivery bicycle" speed="3.65" length="4.67" shape="590.78,622.09 592.16,621.70 593.03,621.91 593.38,622.74 593.21,624.17"/>
    </edge>
    <edge id=":2773686835_0" function="internal">
        <lane id=":2773686835_0_0" index="0" allow="pedestrian delivery bicycle" speed="5.56" length="5.68" shape="610.37,678.05 606.58,682.28"/>
    </edge>
    <edge id=":2773686835_1" function="internal">
        <lane id=":2773686835_1_0" index="0" allow="pedestrian delivery bicycle" speed="3.65" length="1.44" shape="610.37,678.05 608.97,678.40"/>
    </edge>
    <edge id=":2773686835_4" function="internal">
        <lane id=":2773686835_4_0" index="0" allow="pedestrian delivery bicycle" speed="3.65" length="3.23" shape="608.97,678.40 608.11,678.16 607.78,677.33 607.99,675.90"/>
    </edge>
    <edge id=":2773686835_2" function="internal">
        <lane id=":2773686835_2_0" index="0" allow="pedestrian delivery bicycle" speed="5.56" length="5.72" shape="604.18,680.17 607.99,675.90"/>
    </edge>
    <edge id=":2773686835_3" function="internal">
        <lane id=":2773686835_3_0" index="0" allow="pedestrian delivery bicycle" speed="3.65" length="1.44" shape="604.18,680.17 605.57,679.79"/>
    </edge>
    <edge id=":2773686835_5" function="internal">
        <lane id=":2773686835_5_0" index="0" allow="pedestrian delivery bicycle" speed="3.65" length="3.23" shape="605.57,679.79 606.44,680.02 606.77,680.85 606.58,682.28"/>
    </edge>
    <edge id=":2773686872_0" function="internal">
        <lane id=":2773686872_0_0" index="0" disallow="pedestrian tram rail_urban rail rail_electric rail_fast ship" speed="13.89" length="9.46" shape="567.65,658.91 560.46,652.76"/>
    </edge>
    <edge id=":2773686872_1" function="internal">
        <lane id=":2773686872_1_0" index="0" allow="delivery bicycle" speed="6.85" length="3.32" shape="567.65,658.91 565.78,656.81 565.62,656.33"/>
    </edge>
    <edge id=":2773686872_7" function="internal">
        <lane id=":2773686872_7_0" index="0" allow="delivery bicycle" speed="6.85" length="6.92" shape="565.62,656.33 565.04,654.62 565.44,652.35 566.96,649.99"/>
    </edge>
    <edge id=":2773686872_2" function="internal">
        <lane id=":2773686872_2_0" index="0" allow="delivery bicycle" speed="5.02" length="5.02" shape="569.38,652.09 568.63,653.25 568.43,654.36 568.79,655.43 569.71,656.46"/>
    </edge>
    <edge id=":2773686872_3" function="internal">
        <lane id=":2773686872_3_0" index="0" allow="delivery bicycle" speed="6.88" length="10.19" shape="569.38,652.09 567.26,653.93 565.06,654.65 562.80,654.26 560.46,652.76"/>
    </edge>
    <edge id=":2773686872_4" function="internal">
        <lane id=":2773686872_4_0" index="0" allow="pedestrian delivery bicycle" speed="3.65" length="4.67" shape="569.38,652.09 567.98,652.47 567.12,652.25 566.78,651.42 566.96,649.99"/>
    </edge>
    <edge id=":2773686872_5" function="internal">
        <lane id=":2773686872_5_0" index="0" allow="delivery bicycle" speed="5.06" length="5.04" shape="562.55,650.34 563.70,651.08 564.82,651.27 565.91,650.90 566.96,649.99"/>
    </edge>
    <edge id=":2773686872_6" function="internal">
        <lane id=":2773686872_6_0" index="0" disallow="pedestrian tram rail_urban rail rail_electric rail_fast ship" speed="13.89" length="9.42" shape="562.55,650.34 569.71,656.46"/>
    </edge>
    <edge id=":2773686909_0" function="internal">
        <lane id=":2773686909_0_0" index="0" allow="pedestrian delivery bicycle" speed="5.56" length="5.13" shape="574.01,646.72 570.67,650.61"/>
    </edge>
    <edge id=":2773686909_1" function="internal">
        <lane id=":2773686909_1_0" index="0" allow="pedestrian delivery bicycle" speed="3.65" length="1.44" shape="574.01,646.72 572.63,647.12"/>
    </edge>
    <edge id=":2773686909_4" function="internal">
        <lane id=":2773686909_4_0" index="0" allow="pedestrian delivery bicycle" speed="3.65" length="3.23" shape="572.63,647.12 571.76,646.90 571.41,646.08 571.58,644.65"/>
    </edge>
    <edge id=":2773686909_2" function="internal">
        <lane id=":2773686909_2_0" index="0" allow="pedestrian delivery bicycle" speed="5.56" length="5.09" shape="568.26,648.51 571.58,644.65"/>
    </edge>
    <edge id=":2773686909_3" function="internal">
        <lane id=":2773686909_3_0" index="0" allow="pedestrian delivery bicycle" speed="3.65" length="1.44" shape="568.26,648.51 569.65,648.13"/>
    </edge>
    <edge id=":2773686909_5" function="internal">
        <lane id=":2773686909_5_0" index="0" allow="pedestrian delivery bicycle" speed="3.65" length="3.23" shape="569.65,648.13 570.51,648.35 570.85,649.18 570.67,650.61"/>
    </edge>
    <edge id=":2828788601_0" function="internal">
        <lane id=":2828788601_0_0" index="0" disallow="pedestrian tram rail_urban rail rail_electric rail_fast ship" speed="13.89" length="8.41" shape="547.64,641.74 545.43,640.54 543.55,640.39 541.66,640.24 539.45,639.03"/>
        <lane id=":2828788601_0_1" index="1" disallow="pedestrian tram rail_urban rail rail_electric rail_fast ship" speed="13.89" length="8.41" shape="547.64,641.74 541.52,636.59"/>
    </edge>
    <edge id=":2828788601_2" function="internal">
        <lane id=":2828788601_2_0" index="0" disallow="pedestrian tram rail_urban rail rail_electric rail_fast ship" speed="13.89" length="8.00" shape="543.58,634.14 549.69,639.30"/>
    </edge>
    <edge id=":3600919675_0" function="internal">
        <lane id=":3600919675_0_0" index="0" allow="pedestrian delivery bicycle" speed="3.65" length="4.67" shape="502.21,744.61 503.49,743.94 504.38,743.98 504.89,744.71 505.01,746.15"/>
    </edge>
    <edge id=":3600919679_0" function="internal">
        <lane id=":3600919679_0_0" index="0" allow="pedestrian delivery bicycle" speed="3.65" length="4.67" shape="466.97,782.96 465.53,782.96 464.75,782.53 464.63,781.64 465.18,780.30"/>
    </edge>
    <edge id=":418983000_0" function="internal">
        <lane id=":418983000_0_0" index="0" disallow="tram rail_urban rail rail_electric rail_fast ship" speed="13.89" length="9.60" shape="598.05,799.26 591.94,806.67"/>
    </edge>
    <edge id=":418983000_1" function="internal">
        <lane id=":418983000_1_0" index="0" allow="pedestrian delivery bicycle" speed="6.83" length="3.42" shape="598.05,799.26 595.98,801.22 595.45,801.42"/>
    </edge>
    <edge id=":418983000_7" function="internal">
        <lane id=":418983000_7_0" index="0" allow="pedestrian delivery bicycle" speed="6.83" length="6.93" shape="595.45,801.42 593.80,802.02 591.51,801.66 589.10,800.14"/>
    </edge>
    <edge id=":418983000_2" function="internal">
        <lane id=":418983000_2_0" index="0" allow="pedestrian delivery bicycle" speed="5.00" length="5.04" shape="591.18,797.70 592.35,798.45 593.47,798.62 594.53,798.23 595.54,797.28"/>
    </edge>
    <edge id=":418983000_3" function="internal">
        <lane id=":418983000_3_0" index="0" allow="pedestrian delivery bicycle" speed="6.89" length="10.27" shape="591.18,797.70 593.06,799.83 593.81,802.03 593.44,804.31 591.94,806.67"/>
    </edge>
    <edge id=":418983000_4" function="internal">
        <lane id=":418983000_4_0" index="0" allow="pedestrian delivery bicycle" speed="3.65" length="4.67" shape="591.18,797.70 591.57,799.09 591.36,799.96 590.53,800.31 589.10,800.14"/>
    </edge>
    <edge id=":418983000_5" function="internal">
        <lane id=":418983000_5_0" index="0" allow="pedestrian delivery bicycle" speed="5.07" length="5.09" shape="589.52,804.58 590.25,803.42 590.43,802.29 590.04,801.20 589.10,800.14"/>
    </edge>
    <edge id=":418983000_6" function="internal">
        <lane id=":418983000_6_0" index="0" disallow="tram rail_urban rail rail_electric rail_fast ship" speed="13.89" length="9.47" shape="589.52,804.58 595.54,797.28"/>
    </edge>
    <edge id=":4322459565_0" function="internal">
        <lane id=":4322459565_0_0" index="0" allow="pedestrian delivery bicycle" speed="5.56" length="5.03" shape="486.96,768.32 483.16,771.60"/>
    </edge>
    <edge id=":4322459565_1" function="internal">
        <lane id=":4322459565_1_0" index="0" allow="pedestrian delivery bicycle" speed="3.65" length="1.44" shape="486.96,768.32 485.53,768.50"/>
    </edge>
    <edge id=":4322459565_4" function="internal">
        <lane id=":4322459565_4_0" index="0" allow="pedestrian delivery bicycle" speed="3.65" length="3.23" shape="485.53,768.50 484.71,768.15 484.49,767.29 484.88,765.90"/>
    </edge>
    <edge id=":4322459565_2" function="internal">
        <lane id=":4322459565_2_0" index="0" allow="pedestrian delivery bicycle" speed="5.56" length="5.02" shape="481.07,769.18 484.88,765.90"/>
    </edge>
    <edge id=":4322459565_3" function="internal">
        <lane id=":4322459565_3_0" index="0" allow="pedestrian delivery bicycle" speed="3.65" length="1.44" shape="481.07,769.18 482.50,769.00"/>
    </edge>
    <edge id=":4322459565_5" function="internal">
        <lane id=":4322459565_5_0" index="0" allow="pedestrian delivery bicycle" speed="3.65" length="3.23" shape="482.50,769.00 483.32,769.35 483.54,770.21 483.16,771.60"/>
    </edge>
    <edge id=":4322460160_0" function="internal">
        <lane id=":4322460160_0_0" index="0" allow="pedestrian delivery bicycle" speed="5.56" length="5.01" shape="499.79,754.86 496.67,758.78"/>
    </edge>
    <edge id=":4322460160_1" function="internal">
        <lane id=":4322460160_1_0" index="0" allow="pedestrian delivery bicycle" speed="3.65" length="1.44" shape="499.79,754.86 498.42,755.30"/>
    </edge>
    <edge id=":4322460160_4" function="internal">
        <lane id=":4322460160_4_0" index="0" allow="pedestrian delivery bicycle" speed="3.65" length="3.23" shape="498.42,755.30 497.55,755.12 497.17,754.31 497.29,752.87"/>
    </edge>
    <edge id=":4322460160_2" function="internal">
        <lane id=":4322460160_2_0" index="0" allow="pedestrian delivery bicycle" speed="5.56" length="5.01" shape="494.17,756.79 497.29,752.87"/>
    </edge>
    <edge id=":4322460160_3" function="internal">
        <lane id=":4322460160_3_0" index="0" allow="pedestrian delivery bicycle" speed="3.65" length="1.44" shape="494.17,756.79 495.54,756.35"/>
    </edge>
    <edge id=":4322460160_5" function="internal">
        <lane id=":4322460160_5_0" index="0" allow="pedestrian delivery bicycle" speed="3.65" length="3.23" shape="495.54,756.35 496.42,756.53 496.80,757.35 496.67,758.78"/>
    </edge>
    <edge id=":442006470_0" function="internal">
        <lane id=":442006470_0_0" index="0" disallow="pedestrian tram rail_urban rail rail_electric rail_fast ship" speed="13.89" length="9.36" shape="638.93,719.95 631.88,713.79"/>
    </edge>
    <edge id=":442006470_1" function="internal">
        <lane id=":442006470_1_0" index="0" allow="delivery bicycle" speed="6.84" length="3.26" shape="638.93,719.95 637.09,717.79 636.96,717.38"/>
    </edge>
    <edge id=":442006470_7" function="internal">
        <lane id=":442006470_7_0" index="0" allow="delivery bicycle" speed="6.84" length="7.03" shape="636.96,717.38 636.40,715.58 636.87,713.32 638.48,710.99"/>
    </edge>
    <edge id=":442006470_2" function="internal">
        <lane id=":442006470_2_0" index="0" allow="delivery bicycle" speed="5.01" length="5.03" shape="640.82,713.17 640.04,714.30 639.81,715.41 640.14,716.49 641.04,717.55"/>
    </edge>
    <edge id=":442006470_3" function="internal">
        <lane id=":442006470_3_0" index="0" allow="delivery bicycle" speed="6.94" length="10.15" shape="640.82,713.17 638.65,714.95 636.43,715.64 634.18,715.26 631.88,713.79"/>
    </edge>
    <edge id=":442006470_4" function="internal">
        <lane id=":442006470_4_0" index="0" allow="pedestrian delivery bicycle" speed="3.65" length="4.67" shape="640.82,713.17 639.42,713.50 638.56,713.25 638.25,712.41 638.48,710.99"/>
    </edge>
    <edge id=":442006470_5" function="internal">
        <lane id=":442006470_5_0" index="0" allow="delivery bicycle" speed="5.15" length="5.12" shape="633.97,711.37 635.12,712.10 636.25,712.27 637.37,711.90 638.48,710.99"/>
    </edge>
    <edge id=":442006470_6" function="internal">
        <lane id=":442006470_6_0" index="0" disallow="pedestrian tram rail_urban rail rail_electric rail_fast ship" speed="13.89" length="9.39" shape="633.97,711.37 641.04,717.55"/>
    </edge>
    <edge id=":442006471_0" function="internal">
        <lane id=":442006471_0_0" index="0" allow="pedestrian delivery bicycle" speed="3.65" length="4.67" shape="650.02,697.84 651.41,697.44 652.28,697.66 652.63,698.49 652.45,699.92"/>
    </edge>
    <edge id=":8565770807_0" function="internal">
        <lane id=":8565770807_0_0" index="0" allow="pedestrian bicycle" speed="2.78" length="5.01" width="2.00" shape="557.85,508.37 561.15,504.60"/>
    </edge>
    <edge id=":946836386_0" function="internal">
        <lane id=":946836386_0_0" index="0" allow="pedestrian delivery bicycle" speed="5.56" length="5.19" shape="646.02,707.42 642.56,711.29"/>
    </edge>
    <edge id=":946836386_1" function="internal">
        <lane id=":946836386_1_0" index="0" allow="pedestrian delivery bicycle" speed="3.65" length="1.44" shape="646.02,707.42 644.63,707.81"/>
    </edge>
    <edge id=":946836386_4" function="internal">
        <lane id=":946836386_4_0" index="0" allow="pedestrian delivery bicycle" speed="3.65" length="3.23" shape="644.63,707.81 643.76,707.60 643.42,706.77 643.59,705.34"/>
    </edge>
    <edge id=":946836386_2" function="internal">
        <lane id=":946836386_2_0" index="0" allow="pedestrian delivery bicycle" speed="5.56" length="5.06" shape="640.22,709.12 643.59,705.34"/>
    </edge>
    <edge id=":946836386_3" function="internal">
        <lane id=":946836386_3_0" index="0" allow="pedestrian delivery bicycle" speed="3.65" length="1.44" shape="640.22,709.12 641.62,708.78"/>
    </edge>
    <edge id=":946836386_5" function="internal">
        <lane id=":946836386_5_0" index="0" allow="pedestrian delivery bicycle" speed="3.65" length="3.23" shape="641.62,708.78 642.48,709.03 642.79,709.87 642.56,711.29"/>
    </edge>
    <edge id=":946872558_0" function="internal">
        <lane id=":946872558_0_0" index="0" allow="pedestrian bicycle" speed="2.78" length="4.59" width="2.00" shape="498.45,615.67 495.37,619.07"/>
    </edge>
    <edge id=":946872585_0" function="internal">
        <lane id=":946872585_0_0" index="0" allow="pedestrian bicycle" speed="2.78" length="3.41" width="2.00" shape="474.29,598.91 476.70,596.50"/>
    </edge>
    <edge id=":cluster_1077566226_1077566373_1692237443_1692375303_20980542_363206_4957200192_773275894_773287563_8565770813_946872562_946872593_967126056_967126073_967126082_967126095_0" function="internal">
        <lane id=":cluster_1077566226_1077566373_1692237443_1692375303_20980542_363206_4957200192_773275894_773287563_8565770813_946872562_946872593_967126056_967126073_967126082_967126095_0_0" index="0" allow="bicycle" speed="6.70" length="9.52" width="2.00" shape="506.23,610.98 504.96,610.59 503.26,611.22 501.13,612.86 498.58,615.52"/>
    </edge>
    <edge id=":cluster_1077566226_1077566373_1692237443_1692375303_20980542_363206_4957200192_773275894_773287563_8565770813_946872562_946872593_967126056_967126073_967126082_967126095_1" function="internal">
        <lane id=":cluster_1077566226_1077566373_1692237443_1692375303_20980542_363206_4957200192_773275894_773287563_8565770813_946872562_946872593_967126056_967126073_967126082_967126095_1_0" index="0" disallow="pedestrian tram rail_urban rail rail_electric rail_fast ship" speed="8.19" length="14.07" shape="506.23,610.98 503.51,609.51 500.54,609.49 497.34,610.94 493.91,613.84"/>
    </edge>
    <edge id=":cluster_1077566226_1077566373_1692237443_1692375303_20980542_363206_4957200192_773275894_773287563_8565770813_946872562_946872593_967126056_967126073_967126082_967126095_2" function="internal">
        <lane id=":cluster_1077566226_1077566373_1692237443_1692375303_20980542_363206_4957200192_773275894_773287563_8565770813_946872562_946872593_967126056_967126073_967126082_967126095_2_0" index="0" disallow="pedestrian tram rail_urban rail rail_electric rail_fast ship" speed="11.11" length="33.71" shape="506.23,610.98 482.14,587.40"/>
    </edge>
    <edge id=":cluster_1077566226_1077566373_1692237443_1692375303_20980542_363206_4957200192_773275894_773287563_8565770813_946872562_946872593_967126056_967126073_967126082_967126095_3" function="internal">