<?xml version="1.0" encoding="UTF-8"?>

<!-- generated on 2022-05-04 15:42:13 by Eclipse SUMO netconvert Version 1.13.0
<configuration xmlns:xsi="http://www.w3.org/2001/XMLSchema-instance" xsi:noNamespaceSchemaLocation="http://sumo.dlr.de/xsd/netconvertConfiguration.xsd">

    <input>
        <type-files value="/usr/share/sumo/data/typemap/osmNetconvert.typ.xml,/usr/share/sumo/data/typemap/osmNetconvertUrbanDe.typ.xml"/>
        <osm-files value="crossing.osm"/>
    </input>

    <output>
        <output-file value="crossing.net.xml"/>
    </output>

    <projection>
        <proj.utm value="true"/>
    </projection>

    <processing>
        <geometry.remove value="true"/>
        <roundabouts.guess value="true"/>
    </processing>

    <tls_building>
        <tls.discard-simple value="true"/>
        <tls.join value="true"/>
        <tls.guess-signals value="true"/>
    </tls_building>

    <ramp_guessing>
        <ramps.guess value="true"/>
    </ramp_guessing>

    <junctions>
        <junctions.join value="true"/>
    </junctions>

    <report>
        <aggregate-warnings value="5"/>
    </report>

</configuration>
-->

<net version="1.9" junctionCornerDetail="5" limitTurnSpeed="5.50" xmlns:xsi="http://www.w3.org/2001/XMLSchema-instance" xsi:noNamespaceSchemaLocation="http://sumo.dlr.de/xsd/net_file.xsd">

    <location netOffset="-684334.79,-5333053.37" convBoundary="0.00,0.00,443.00,580.16" origBoundary="11.477234,48.123977,11.483208,48.129216" projParameter="+proj=utm +zone=32 +ellps=WGS84 +datum=WGS84 +units=m +no_defs"/>

    <type id="highway.bridleway" priority="1" numLanes="1" speed="2.78" allow="pedestrian" oneway="1" width="2.00"/>
    <type id="highway.bus_guideway" priority="1" numLanes="1" speed="13.89" allow="bus" oneway="1"/>
    <type id="highway.cycleway" priority="1" numLanes="1" speed="8.33" allow="bicycle" oneway="0" width="1.00"/>
    <type id="highway.footway" priority="1" numLanes="1" speed="2.78" allow="pedestrian" oneway="1" width="2.00"/>
    <type id="highway.ford" priority="1" numLanes="1" speed="2.78" allow="army" oneway="0"/>
    <type id="highway.living_street" priority="2" numLanes="1" speed="2.78" disallow="tram rail_urban rail rail_electric rail_fast ship" oneway="0"/>
    <type id="highway.motorway" priority="14" numLanes="2" speed="27.78" allow="private emergency authority army vip passenger hov taxi bus coach delivery truck trailer motorcycle evehicle custom1 custom2" oneway="1"/>
    <type id="highway.motorway_link" priority="9" numLanes="1" speed="16.67" allow="private emergency authority army vip passenger hov taxi bus coach delivery truck trailer motorcycle evehicle custom1 custom2" oneway="1"/>
    <type id="highway.path" priority="1" numLanes="1" speed="2.78" allow="pedestrian bicycle" oneway="0" width="2.00"/>
    <type id="highway.pedestrian" priority="1" numLanes="1" speed="2.78" allow="pedestrian" oneway="1" width="2.00"/>
    <type id="highway.primary" priority="12" numLanes="2" speed="13.89" disallow="tram rail_urban rail rail_electric rail_fast ship" oneway="0"/>
    <type id="highway.primary_link" priority="7" numLanes="1" speed="13.89" disallow="tram rail_urban rail rail_electric rail_fast ship" oneway="0"/>
    <type id="highway.raceway" priority="15" numLanes="2" speed="83.33" allow="vip" oneway="0"/>
    <type id="highway.residential" priority="3" numLanes="1" speed="13.89" disallow="tram rail_urban rail rail_electric rail_fast ship" oneway="0"/>
    <type id="highway.secondary" priority="11" numLanes="1" speed="13.89" disallow="tram rail_urban rail rail_electric rail_fast ship" oneway="0"/>
    <type id="highway.secondary_link" priority="6" numLanes="1" speed="13.89" disallow="tram rail_urban rail rail_electric rail_fast ship" oneway="0"/>
    <type id="highway.service" priority="1" numLanes="1" speed="5.56" allow="pedestrian delivery bicycle" oneway="0"/>
    <type id="highway.stairs" priority="1" numLanes="1" speed="1.39" allow="pedestrian" oneway="1" width="2.00"/>
    <type id="highway.step" priority="1" numLanes="1" speed="1.39" allow="pedestrian" oneway="1" width="2.00"/>
    <type id="highway.steps" priority="1" numLanes="1" speed="1.39" allow="pedestrian" oneway="1" width="2.00"/>
    <type id="highway.tertiary" priority="10" numLanes="1" speed="13.89" disallow="tram rail_urban rail rail_electric rail_fast ship" oneway="0"/>
    <type id="highway.tertiary_link" priority="5" numLanes="1" speed="13.89" disallow="tram rail_urban rail rail_electric rail_fast ship" oneway="0"/>
    <type id="highway.track" priority="1" numLanes="1" speed="5.56" allow="pedestrian motorcycle moped bicycle" oneway="0"/>
    <type id="highway.trunk" priority="13" numLanes="2" speed="13.89" disallow="pedestrian bicycle tram rail_urban rail rail_electric rail_fast ship" oneway="0"/>
    <type id="highway.trunk_link" priority="8" numLanes="1" speed="13.89" disallow="pedestrian bicycle tram rail_urban rail rail_electric rail_fast ship" oneway="0"/>
    <type id="highway.unclassified" priority="4" numLanes="1" speed="13.89" disallow="tram rail_urban rail rail_electric rail_fast ship" oneway="0"/>
    <type id="highway.unsurfaced" priority="1" numLanes="1" speed="8.33" disallow="tram rail_urban rail rail_electric rail_fast ship" oneway="0"/>
    <type id="railway.highspeed" priority="21" numLanes="1" speed="69.44" allow="rail_fast" oneway="1"/>
    <type id="railway.light_rail" priority="19" numLanes="1" speed="27.78" allow="rail_urban" oneway="1"/>
    <type id="railway.preserved" priority="16" numLanes="1" speed="27.78" allow="rail" oneway="1"/>
    <type id="railway.rail" priority="20" numLanes="1" speed="44.44" allow="rail" oneway="1"/>
    <type id="railway.subway" priority="18" numLanes="1" speed="27.78" allow="rail_urban" oneway="1"/>
    <type id="railway.tram" priority="17" numLanes="1" speed="13.89" allow="tram" oneway="1"/>

    <edge id=":132298977_0" function="internal">
        <lane id=":132298977_0_0" index="0" disallow="tram rail_urban rail rail_electric rail_fast ship" speed="3.65" length="4.67" shape="443.01,251.35 444.21,252.16 444.60,252.96 444.20,253.76 442.99,254.55"/>
    </edge>
    <edge id=":1364767246_0" function="internal">
        <lane id=":1364767246_0_0" index="0" allow="pedestrian bicycle" speed="2.78" length="4.99" width="2.00" shape="147.98,217.99 148.33,213.01"/>
    </edge>
    <edge id=":9464234495_0" function="internal">
        <lane id=":9464234495_0_0" index="0" disallow="tram rail_urban rail rail_electric rail_fast ship" speed="3.65" length="4.67" shape="117.97,202.30 116.91,201.32 116.65,200.46 117.17,199.74 118.49,199.14"/>
    </edge>
    <edge id=":cluster_21583533_21583534_769862573_769862575_0" function="internal">
        <lane id=":cluster_21583533_21583534_769862573_769862575_0_0" index="0" disallow="tram rail_urban rail rail_electric rail_fast ship" speed="10.02" length="18.13" shape="153.41,218.56 152.66,214.43 150.48,211.03 146.87,208.37 141.82,206.45"/>
    </edge>
    <edge id=":cluster_21583533_21583534_769862573_769862575_1" function="internal">
        <lane id=":cluster_21583533_21583534_769862573_769862575_1_0" index="0" allow="pedestrian bicycle" speed="8.33" length="23.37" width="2.00" shape="153.41,218.56 152.65,210.79 151.06,204.67 149.47,199.79 148.73,195.76"/>
    </edge>
    <edge id=":cluster_21583533_21583534_769862573_769862575_2" function="internal">
        <lane id=":cluster_21583533_21583534_769862573_769862575_2_0" index="0" disallow="pedestrian tram rail_urban rail rail_electric rail_fast ship" speed="13.89" length="22.98" shape="156.61,218.66 156.64,195.68"/>
    </edge>
    <edge id=":cluster_21583533_21583534_769862573_769862575_3" function="internal">
        <lane id=":cluster_21583533_21583534_769862573_769862575_3_0" index="0" disallow="tram rail_urban rail rail_electric rail_fast ship" speed="10.37" length="11.16" shape="159.81,218.76 161.54,213.11 166.13,210.58"/>
    </edge>
    <edge id=":cluster_21583533_21583534_769862573_769862575_4" function="internal">
        <lane id=":cluster_21583533_21583534_769862573_769862575_4_0" index="0" allow="pedestrian bicycle" speed="6.15" length="17.24" width="2.00" shape="159.81,218.76 177.05,219.30"/>
    </edge>
    <edge id=":cluster_21583533_21583534_769862573_769862575_5" function="internal">
        <lane id=":cluster_21583533_21583534_769862573_769862575_5_0" index="0" disallow="pedestrian tram rail_urban rail rail_electric rail_fast ship" speed="5.33" length="9.18" shape="159.81,218.76 162.06,215.61 164.23,214.61 166.34,215.75 166.62,216.19"/>
    </edge>
    <edge id=":cluster_21583533_21583534_769862573_769862575_36" function="internal">
        <lane id=":cluster_21583533_21583534_769862573_769862575_36_0" index="0" disallow="tram rail_urban rail rail_electric rail_fast ship" speed="10.37" length="16.99" shape="166.13,210.58 166.39,210.44 173.75,210.07 182.99,211.35"/>
    </edge>
    <edge id=":cluster_21583533_21583534_769862573_769862575_37" function="internal">
        <lane id=":cluster_21583533_21583534_769862573_769862575_37_0" index="0" disallow="pedestrian tram rail_urban rail rail_electric rail_fast ship" speed="5.33" length="3.35" shape="166.62,216.19 168.39,219.03"/>
    </edge>
    <edge id=":cluster_21583533_21583534_769862573_769862575_6" function="internal">
        <lane id=":cluster_21583533_21583534_769862573_769862575_6_0" index="0" allow="pedestrian bicycle" speed="6.03" length="8.51" width="2.00" shape="182.40,214.49 180.12,214.43 178.47,215.21 177.45,216.83 177.05,219.30"/>
    </edge>
    <edge id=":cluster_21583533_21583534_769862573_769862575_7" function="internal">
        <lane id=":cluster_21583533_21583534_769862573_769862575_7_0" index="0" disallow="pedestrian tram rail_urban rail rail_electric rail_fast ship" speed="8.14" length="16.84" shape="182.40,214.49 176.26,213.79 171.88,214.31 169.25,216.06 168.39,219.03"/>
    </edge>
    <edge id=":cluster_21583533_21583534_769862573_769862575_8" function="internal">
        <lane id=":cluster_21583533_21583534_769862573_769862575_8_0" index="0" disallow="tram rail_urban rail rail_electric rail_fast ship" speed="13.89" length="41.37" shape="182.40,214.49 141.82,206.45"/>
    </edge>
    <edge id=":cluster_21583533_21583534_769862573_769862575_9" function="internal">
        <lane id=":cluster_21583533_21583534_769862573_769862575_9_0" index="0" allow="pedestrian bicycle" speed="8.33" length="25.91" width="2.00" shape="182.40,214.49 167.71,210.96 157.71,206.86"/>
    </edge>
    <edge id=":cluster_21583533_21583534_769862573_769862575_10" function="internal">
        <lane id=":cluster_21583533_21583534_769862573_769862575_10_0" index="0" disallow="pedestrian tram rail_urban rail rail_electric rail_fast ship" speed="12.65" length="13.00" shape="182.40,214.49 172.48,211.72 170.14,210.37"/>
    </edge>
    <edge id=":cluster_21583533_21583534_769862573_769862575_11" function="internal">
        <lane id=":cluster_21583533_21583534_769862573_769862575_11_0" index="0" disallow="tram rail_urban rail rail_electric rail_fast ship" speed="3.65" length="1.44" shape="182.40,214.49 181.36,213.49"/>
    </edge>
    <edge id=":cluster_21583533_21583534_769862573_769862575_38" function="internal">
        <lane id=":cluster_21583533_21583534_769862573_769862575_38_0" index="0" allow="pedestrian bicycle" speed="8.33" length="14.87" width="2.00" shape="157.71,206.86 157.20,206.66 150.88,201.59 148.73,195.76"/>
    </edge>
    <edge id=":cluster_21583533_21583534_769862573_769862575_39" function="internal">
        <lane id=":cluster_21583533_21583534_769862573_769862575_39_0" index="0" disallow="pedestrian tram rail_urban rail rail_electric rail_fast ship" speed="12.65" length="19.04" shape="170.14,210.37 165.42,207.65 161.20,202.30 159.84,195.66"/>
    </edge>
    <edge id=":cluster_21583533_21583534_769862573_769862575_40" function="internal">
        <lane id=":cluster_21583533_21583534_769862573_769862575_40_0" index="0" disallow="tram rail_urban rail rail_electric rail_fast ship" speed="3.65" length="3.23" shape="181.36,213.49 181.12,212.63 181.66,211.91 182.99,211.35"/>
    </edge>
    <edge id=":cluster_21583533_21583534_769862573_769862575_12" function="internal">
        <lane id=":cluster_21583533_21583534_769862573_769862575_12_0" index="0" allow="pedestrian bicycle" speed="8.33" length="17.72" width="2.00" shape="178.13,195.49 178.15,202.03 178.96,206.86 180.57,209.96 182.99,211.35"/>
    </edge>
    <edge id=":cluster_21583533_21583534_769862573_769862575_13" function="internal">
        <lane id=":cluster_21583533_21583534_769862573_769862575_13_0" index="0" allow="pedestrian bicycle" speed="2.78" length="23.83" width="2.00" shape="178.13,195.49 177.05,219.30"/>
    </edge>
    <edge id=":cluster_21583533_21583534_769862573_769862575_14" function="internal">
        <lane id=":cluster_21583533_21583534_769862573_769862575_14_0" index="0" allow="bicycle" speed="8.33" length="25.56" width="2.00" shape="178.13,195.49 176.50,200.57 173.16,207.26 169.87,213.94 168.39,219.03"/>
    </edge>
    <edge id=":cluster_21583533_21583534_769862573_769862575_15" function="internal">
        <lane id=":cluster_21583533_21583534_769862573_769862575_15_0" index="0" allow="pedestrian bicycle" speed="8.33" length="28.11" width="2.00" shape="178.13,195.49 173.51,200.56 163.05,204.53 153.16,206.34"/>
    </edge>
    <edge id=":cluster_21583533_21583534_769862573_769862575_16" function="internal">
        <lane id=":cluster_21583533_21583534_769862573_769862575_16_0" index="0" allow="pedestrian bicycle" speed="2.78" length="23.21" width="2.00" shape="178.13,195.49 154.92,195.70"/>
    </edge>
    <edge id=":cluster_21583533_21583534_769862573_769862575_17" function="internal">
        <lane id=":cluster_21583533_21583534_769862573_769862575_17_0" index="0" allow="bicycle" speed="7.39" length="13.36" width="2.00" shape="178.13,195.49 173.62,202.39 169.07,204.72"/>
    </edge>
    <edge id=":cluster_21583533_21583534_769862573_769862575_41" function="internal">
        <lane id=":cluster_21583533_21583534_769862573_769862575_41_0" index="0" allow="pedestrian bicycle" speed="8.33" length="11.38" width="2.00" shape="153.16,206.34 151.06,206.72 141.82,206.45"/>
    </edge>
    <edge id=":cluster_21583533_21583534_769862573_769862575_42" function="internal">
        <lane id=":cluster_21583533_21583534_769862573_769862575_42_0" index="0" allow="pedestrian bicycle" speed="2.78" length="6.19" width="2.00" shape="154.92,195.70 148.73,195.76"/>
    </edge>
    <edge id=":cluster_21583533_21583534_769862573_769862575_43" function="internal">
        <lane id=":cluster_21583533_21583534_769862573_769862575_43_0" index="0" allow="bicycle" speed="7.39" length="13.36" width="2.00" shape="169.07,204.72 164.48,202.47 159.84,195.66"/>
    </edge>
    <edge id=":cluster_21583533_21583534_769862573_769862575_18" function="internal">
        <lane id=":cluster_21583533_21583534_769862573_769862575_18_0" index="0" disallow="tram rail_urban rail rail_electric rail_fast ship" speed="10.22" length="20.38" shape="173.12,195.54 173.75,201.76 175.61,206.47 178.68,209.67 182.99,211.35"/>
    </edge>
    <edge id=":cluster_21583533_21583534_769862573_769862575_19" function="internal">
        <lane id=":cluster_21583533_21583534_769862573_769862575_19_0" index="0" allow="pedestrian bicycle" speed="8.33" length="24.14" width="2.00" shape="173.12,195.54 173.77,203.62 175.15,210.06 176.50,215.17 177.05,219.30"/>
    </edge>
    <edge id=":cluster_21583533_21583534_769862573_769862575_20" function="internal">
        <lane id=":cluster_21583533_21583534_769862573_769862575_20_0" index="0" disallow="pedestrian tram rail_urban rail rail_electric rail_fast ship" speed="13.89" length="23.51" shape="169.92,195.56 168.39,219.03"/>
    </edge>
    <edge id=":cluster_21583533_21583534_769862573_769862575_21" function="internal">
        <lane id=":cluster_21583533_21583534_769862573_769862575_21_0" index="0" disallow="tram rail_urban rail rail_electric rail_fast ship" speed="10.98" length="15.38" shape="166.72,195.59 164.90,204.02 159.75,207.99 159.49,208.00"/>
    </edge>
    <edge id=":cluster_21583533_21583534_769862573_769862575_22" function="internal">
        <lane id=":cluster_21583533_21583534_769862573_769862575_22_0" index="0" disallow="pedestrian tram rail_urban rail rail_electric rail_fast ship" speed="3.38" length="3.68" shape="163.52,195.62 159.84,195.66"/>
    </edge>
    <edge id=":cluster_21583533_21583534_769862573_769862575_23" function="internal">
        <lane id=":cluster_21583533_21583534_769862573_769862575_23_0" index="0" allow="pedestrian bicycle" speed="6.76" length="7.57" width="2.00" shape="163.52,195.62 159.87,201.20 159.07,201.61"/>
    </edge>
    <edge id=":cluster_21583533_21583534_769862573_769862575_44" function="internal">
        <lane id=":cluster_21583533_21583534_769862573_769862575_44_0" index="0" disallow="tram rail_urban rail rail_electric rail_fast ship" speed="10.98" length="17.89" shape="159.49,208.00 151.86,208.47 141.82,206.45"/>
    </edge>
    <edge id=":cluster_21583533_21583534_769862573_769862575_45" function="internal">
        <lane id=":cluster_21583533_21583534_769862573_769862575_45_0" index="0" allow="pedestrian bicycle" speed="6.76" length="14.04" width="2.00" shape="159.07,201.61 156.19,203.08 152.48,201.27 148.73,195.76"/>
    </edge>
    <edge id=":cluster_21583533_21583534_769862573_769862575_24" function="internal">
        <lane id=":cluster_21583533_21583534_769862573_769862575_24_0" index="0" allow="pedestrian bicycle" speed="5.82" length="8.50" width="2.00" shape="143.49,200.27 145.80,200.52 147.45,199.85 148.42,198.27 148.73,195.76"/>
    </edge>
    <edge id=":cluster_21583533_21583534_769862573_769862575_25" function="internal">
        <lane id=":cluster_21583533_21583534_769862573_769862575_25_0" index="0" disallow="pedestrian tram rail_urban rail rail_electric rail_fast ship" speed="7.12" length="13.17" shape="143.49,200.27 147.82,200.98 150.92,200.46 152.80,198.71 153.44,195.71"/>
    </edge>
    <edge id=":cluster_21583533_21583534_769862573_769862575_26" function="internal">
        <lane id=":cluster_21583533_21583534_769862573_769862575_26_0" index="0" disallow="tram rail_urban rail rail_electric rail_fast ship" speed="13.89" length="41.02" shape="143.49,200.27 182.99,211.35"/>
    </edge>
    <edge id=":cluster_21583533_21583534_769862573_769862575_27" function="internal">
        <lane id=":cluster_21583533_21583534_769862573_769862575_27_0" index="0" allow="pedestrian bicycle" speed="8.33" length="7.48" width="2.00" shape="142.65,203.36 149.83,205.49"/>
    </edge>
    <edge id=":cluster_21583533_21583534_769862573_769862575_28" function="internal">
        <lane id=":cluster_21583533_21583534_769862573_769862575_28_0" index="0" disallow="pedestrian tram rail_urban rail rail_electric rail_fast ship" speed="13.07" length="6.23" shape="142.65,203.36 148.59,205.25"/>
    </edge>
    <edge id=":cluster_21583533_21583534_769862573_769862575_29" function="internal">
        <lane id=":cluster_21583533_21583534_769862573_769862575_29_0" index="0" disallow="tram rail_urban rail rail_electric rail_fast ship" speed="3.65" length="1.44" shape="142.65,203.36 143.60,204.44"/>
    </edge>
    <edge id=":cluster_21583533_21583534_769862573_769862575_46" function="internal">
        <lane id=":cluster_21583533_21583534_769862573_769862575_46_0" index="0" allow="pedestrian bicycle" speed="8.33" length="31.36" width="2.00" shape="149.83,205.49 157.78,207.85 168.55,212.01 174.97,215.82 177.05,219.30"/>
    </edge>
    <edge id=":cluster_21583533_21583534_769862573_769862575_47" function="internal">
        <lane id=":cluster_21583533_21583534_769862573_769862575_47_0" index="0" disallow="pedestrian tram rail_urban rail rail_electric rail_fast ship" speed="13.07" length="25.31" shape="148.59,205.25 153.90,206.94 161.94,210.74 166.77,214.77 168.39,219.03"/>
    </edge>
    <edge id=":cluster_21583533_21583534_769862573_769862575_48" function="internal">
        <lane id=":cluster_21583533_21583534_769862573_769862575_48_0" index="0" disallow="tram rail_urban rail rail_electric rail_fast ship" speed="3.65" length="3.23" shape="143.60,204.44 143.78,205.32 143.19,205.99 141.82,206.45"/>
    </edge>
    <edge id=":cluster_21583533_21583534_769862573_769862575_30" function="internal">
        <lane id=":cluster_21583533_21583534_769862573_769862575_30_0" index="0" allow="pedestrian bicycle" speed="6.75" length="8.74" width="2.00" shape="148.47,211.24 148.14,209.84 146.93,208.57 144.82,207.44 141.82,206.45"/>
    </edge>
    <edge id=":cluster_21583533_21583534_769862573_769862575_31" function="internal">
        <lane id=":cluster_21583533_21583534_769862573_769862575_31_0" index="0" allow="pedestrian bicycle" speed="2.78" length="15.49" width="2.00" shape="148.47,211.24 148.69,207.42 148.77,203.50 148.76,199.58 148.73,195.76"/>
    </edge>
    <edge id=":cluster_21583533_21583534_769862573_769862575_32" function="internal">
        <lane id=":cluster_21583533_21583534_769862573_769862575_32_0" index="0" allow="bicycle" speed="8.33" length="16.44" width="2.00" shape="148.47,211.24 149.41,207.85 151.08,204.66 152.69,200.88 153.44,195.71"/>
    </edge>
    <edge id=":cluster_21583533_21583534_769862573_769862575_33" function="internal">
        <lane id=":cluster_21583533_21583534_769862573_769862575_33_0" index="0" allow="pedestrian bicycle" speed="8.33" length="21.68" width="2.00" shape="148.47,211.24 152.72,210.00 162.53,209.77 169.97,210.11"/>
    </edge>
    <edge id=":cluster_21583533_21583534_769862573_769862575_34" function="internal">
        <lane id=":cluster_21583533_21583534_769862573_769862575_34_0" index="0" allow="bicycle" speed="6.69" length="19.70" width="2.00" shape="148.47,211.24 166.81,218.41"/>
    </edge>
    <edge id=":cluster_21583533_21583534_769862573_769862575_35" function="internal">
        <lane id=":cluster_21583533_21583534_769862573_769862575_35_0" index="0" allow="pedestrian bicycle" speed="2.78" length="27.73" width="2.00" shape="148.47,211.24 158.64,202.54 166.79,200.98 171.26,205.05"/>
    </edge>
    <edge id=":cluster_21583533_21583534_769862573_769862575_49" function="internal">
        <lane id=":cluster_21583533_21583534_769862573_769862575_49_0" index="0" allow="pedestrian bicycle" speed="8.33" length="13.08" width="2.00" shape="169.97,210.11 173.94,210.30 182.99,211.35"/>
    </edge>
    <edge id=":cluster_21583533_21583534_769862573_769862575_50" function="internal">
        <lane id=":cluster_21583533_21583534_769862573_769862575_50_0" index="0" allow="bicycle" speed="6.69" length="1.69" width="2.00" shape="166.81,218.41 168.39,219.03"/>
    </edge>
    <edge id=":cluster_21583533_21583534_769862573_769862575_51" function="internal">
        <lane id=":cluster_21583533_21583534_769862573_769862575_51_0" index="0" allow="pedestrian bicycle" speed="2.78" length="15.63" width="2.00" shape="171.26,205.05 172.93,206.56 177.05,219.30"/>
    </edge>

    <edge id="-284925761#1" from="cluster_21583533_21583534_769862573_769862575" to="9464234495" priority="10" type="highway.tertiary" shape="148.83,206.68 139.09,204.05 137.71,203.89 132.88,203.13 118.23,200.72">
        <lane id="-284925761#1_0" index="0" disallow="tram rail_urban rail rail_electric rail_fast ship" speed="13.89" length="24.23" shape="141.82,206.45 138.79,205.63 137.49,205.47 132.63,204.71 117.97,202.30"/>
    </edge>
    <edge id="-30909845#2" from="132298977" to="cluster_21583533_21583534_769862573_769862575" priority="3" type="highway.residential" shape="443.00,252.95 433.71,252.89 374.32,242.99 348.83,238.75 338.15,236.97 328.94,235.44 322.29,234.33 305.16,231.48 299.56,230.54 288.14,228.52 264.15,225.14 241.96,222.02 238.40,221.48 186.14,213.57 177.27,211.90">
        <lane id="-30909845#2_0" index="0" disallow="tram rail_urban rail rail_electric rail_fast ship" speed="13.89" length="263.78" shape="442.99,254.55 433.57,254.49 374.06,244.57 348.57,240.33 337.88,238.55 328.67,237.02 322.03,235.90 304.89,233.06 299.28,232.12 287.88,230.10 263.93,226.73 241.73,223.61 238.16,223.07 185.87,215.15 182.40,214.49"/>
    </edge>
    <edge id="1026502406#1" from="cluster_21583533_21583534_769862573_769862575" to="9464234462" priority="1" type="highway.path" spreadType="center" shape="148.83,206.68 148.71,194.07">
        <lane id="1026502406#1_0" index="0" allow="pedestrian bicycle" speed="2.78" length="1.68" width="2.00" shape="148.73,195.76 148.71,194.07"/>
    </edge>
    <edge id="1026502407#1" from="cluster_21583533_21583534_769862573_769862575" to="9464234467" priority="1" type="highway.path" spreadType="center" shape="177.27,211.90 176.98,221.55">
        <lane id="1026502407#1_0" index="0" allow="pedestrian bicycle" speed="2.78" length="2.26" width="2.00" shape="177.05,219.30 176.98,221.55"/>
    </edge>
    <edge id="1026502408" from="769862592" to="cluster_21583533_21583534_769862573_769862575" priority="1" type="highway.path" spreadType="center" shape="173.10,0.00 173.33,2.70 175.01,28.12 175.59,42.29 175.51,84.67 178.26,192.96 177.73,203.15 177.27,211.90">
        <lane id="1026502408_0" index="0" allow="pedestrian bicycle" speed="2.78" length="195.60" width="2.00" shape="173.10,0.00 173.33,2.70 175.01,28.12 175.59,42.29 175.51,84.67 178.26,192.96 178.13,195.49"/>
    </edge>
    <edge id="1026502410" from="1364767246" to="9464234470" priority="1" type="highway.footway" spreadType="center" shape="148.13,215.59 36.34,196.67 25.88,195.42 0.00,192.34">
        <lane id="1026502410_0" index="0" allow="pedestrian" speed="2.78" length="147.38" width="2.00" shape="145.57,215.16 36.34,196.67 25.88,195.42 -0.00,192.34"/>
    </edge>
    <edge id="284925759#0" from="1979046303" to="cluster_21583533_21583534_769862573_769862575" priority="11" type="highway.secondary" spreadType="center" shape="168.62,135.04 168.54,188.38 168.31,193.00 168.36,210.60">
        <lane id="284925759#0_0" index="0" disallow="tram rail_urban rail rail_electric rail_fast ship" speed="13.89" length="60.55" shape="173.42,135.05 173.34,188.51 173.11,193.12 173.12,195.54"/>
        <lane id="284925759#0_1" index="1" disallow="tram rail_urban rail rail_electric rail_fast ship" speed="13.89" length="60.55" shape="170.22,135.04 170.14,188.42 169.91,193.04 169.92,195.56"/>
        <lane id="284925759#0_2" index="2" disallow="tram rail_urban rail rail_electric rail_fast ship" speed="13.89" length="60.55" shape="167.02,135.04 166.94,188.34 166.71,192.96 166.72,195.59"/>
        <lane id="284925759#0_3" index="3" disallow="tram rail_urban rail rail_electric rail_fast ship" speed="13.89" length="60.55" shape="163.82,135.03 163.74,188.26 163.51,192.89 163.52,195.62"/>
    </edge>
    <edge id="284925760#0" from="2886219859" to="cluster_21583533_21583534_769862573_769862575" priority="11" type="highway.secondary" spreadType="center" shape="154.86,257.80 156.40,229.69 156.44,227.79 156.64,223.15 156.53,208.06">
        <lane id="284925760#0_0" index="0" disallow="tram rail_urban rail rail_electric rail_fast ship" speed="13.89" length="39.18" shape="151.66,257.62 153.20,229.52 153.24,227.67 153.44,223.10 153.41,218.56"/>
        <lane id="284925760#0_1" index="1" disallow="tram rail_urban rail rail_electric rail_fast ship" speed="13.89" length="39.18" shape="154.86,257.80 156.40,229.69 156.44,227.79 156.64,223.15 156.61,218.66"/>
        <lane id="284925760#0_2" index="2" disallow="tram rail_urban rail rail_electric rail_fast ship" speed="13.89" length="39.18" shape="158.05,257.97 159.59,229.86 159.64,227.91 159.84,223.21 159.81,218.76"/>
    </edge>
    <edge id="284925761#0" from="9464234495" to="cluster_21583533_21583534_769862573_769862575" priority="10" type="highway.tertiary" shape="118.23,200.72 132.88,203.13 137.71,203.89 139.09,204.05 148.83,206.68">
        <lane id="284925761#0_0" index="0" disallow="tram rail_urban rail rail_electric rail_fast ship" speed="13.89" length="24.71" shape="119.00,195.99 133.65,198.39 138.41,199.14 140.01,199.33 143.49,200.27"/>
        <lane id="284925761#0_1" index="1" disallow="tram rail_urban rail rail_electric rail_fast ship" speed="13.89" length="24.71" shape="118.49,199.14 133.14,201.55 137.94,202.30 139.40,202.48 142.65,203.36"/>
    </edge>
    <edge id="293561756#0" from="4277455809" to="1364767246" priority="1" type="highway.path" spreadType="center" shape="89.74,580.16 92.99,575.02 100.39,549.75 107.24,524.89 121.83,457.93 127.39,427.40 133.03,396.12 134.58,380.63 141.19,314.98 143.28,294.15 146.07,248.81 147.70,222.56 148.13,215.59">
        <lane id="293561756#0_0" index="0" allow="pedestrian bicycle" speed="2.78" length="368.34" width="2.00" shape="89.74,580.16 92.99,575.02 100.39,549.75 107.24,524.89 121.83,457.93 127.39,427.40 133.03,396.12 134.58,380.63 141.19,314.98 143.28,294.15 146.07,248.81 147.70,222.56 147.98,217.99"/>
    </edge>
    <edge id="293561756#1" from="1364767246" to="cluster_21583533_21583534_769862573_769862575" priority="1" type="highway.path" spreadType="center" shape="148.13,215.59 148.29,213.51 148.83,206.68">
        <lane id="293561756#1_0" index="0" allow="pedestrian bicycle" speed="2.78" length="1.78" width="2.00" shape="148.33,213.01 148.47,211.24"/>
    </edge>
    <edge id="30909844#0" from="cluster_21583533_21583534_769862573_769862575" to="1979047591" priority="11" type="highway.secondary" spreadType="center" shape="168.36,210.60 168.40,223.81 167.33,245.45 162.93,301.92 149.95,387.42 138.86,448.88 124.69,513.74 116.39,551.66">
        <lane id="30909844#0_0" index="0" disallow="pedestrian tram rail_urban rail rail_electric rail_fast ship" speed="13.89" length="337.23" shape="168.39,219.03 168.40,223.81 167.33,245.45 162.93,301.92 149.95,387.42 138.86,448.88 124.69,513.74 116.39,551.66"/>
    </edge>