<?xml version="1.0" encoding="UTF-8"?>

<!-- generated on 2022-05-06 16:14:25 by Eclipse SUMO duarouter Version 1.13.0
<configuration xmlns:xsi="http://www.w3.org/2001/XMLSchema-instance" xsi:noNamespaceSchemaLocation="http://sumo.dlr.de/xsd/duarouterConfiguration.xsd">

    <input>
        <net-file value="hm_map_ped.net.xml"/>
        <route-files value="sc3_200_y.trips.xml"/>
    </input>

    <output>
        <output-file value="sc3_200_y.rou.xml"/>
        <alternatives-output value="sc3_200_y.rou.alt.xml"/>
    </output>

    <report>
        <ignore-errors value="true"/>
    </report>

</configuration>
-->

<routes xmlns:xsi="http://www.w3.org/2001/XMLSchema-instance" xsi:noNamespaceSchemaLocation="http://sumo.dlr.de/xsd/routes_file.xsd">
    <vType id="pedType1" maxSpeed="1.40" speedFactor="normc(1.00,0.19,0.14,1.43)"/>
    <person id="0" type="pedType1" depart="0.00">
        <walk edges="371876790#5 83120766#0 161652311#14 161652311#13 161652311#12 161652311#11 161652311#10 4520030#7 4520030#6 4520030#5 4520030#4 -4520030#2 -4520030#1 -4520030#0 -157028287#0 -157028287#1"/>
    </person>
    <person id="1" type="pedType1" depart="0.50">
        <walk edges="-851113019#2 81270237#0 161652311#18 161652311#17 312549779#3 35835107#0 35835107#1 274151214#3 274151214#2 274151214#1 274151214#0 945024771#1 945024773#0 -4520029#5"/>
    </person>
    <person id="2" type="pedType1" depart="1.00">
        <walk edges="433685510#0 -433685510#0 -433685510#1 24998362#10 346311427#3 -97594014#1 -97594014#2 97594014#3 -97594013#1 97594013#2 -97594013#3 -433685557#0 433685557#1 -168045896#3 421561992 421561971 686961000#3 686961000#2 686961000#1 421561977#0"/>
    </person>
    <person id="3" type="pedType1" depart="1.50">
        <walk edges="501462498#2 -501462498#1 -501462498#0 -58312556#4 -58312556#3 -58312556#2 272386823#3 272386823#2 -272386823#1"/>
    </person>
    <person id="4" type="pedType1" depart="2.00">
        <walk edges="24998362#3 -24998362#2 -24998362#1 161652311#9 161652311#8 161652311#7 161652311#6 161652311#5 161652311#4 161652311#3 161652311#2 161652311#1 161652311#0 -168045896#7 288283592#12 288283592#11 288283592#10 -288283592#9 -288283592#8 288283592#6 -501462498#3 272393837#0 272393837#1 455764096#1 455764096#0 -163989140#0"/>
    </person>
    <person id="5" type="pedType1" depart="2.50">
        <walk edges="-4520029#1 274158237#1 945024770#2 274151214#1 274151214#2 274151214#3 35835107#1 35835107#0 312549779#2 274151220"/>
    </person>
    <person id="6" type="pedType1" depart="3.00">
        <walk edges="-157028287#2 157028287#2 -157028287#1 -157028287#0 -4520030#0 -4520030#1 -4520030#2 -4520030#4 -4520030#5 4520030#6 4520030#7 161652311#9 161652311#8 161652311#7 161652311#6 161652311#5 161652311#4 161652311#3 161652311#2 161652311#1 161652311#0 -168045896#7 922737182#3 922737182#2 -429102599#1"/>
    </person>
    <person id="7" type="pedType1" depart="3.50">
        <walk edges="391390203 371876790#1 371876790#2 371876790#3 371876790#4 371876790#5 83120766#0 312549779#3 35835107#0 35835107#1 274151214#3 274151214#2 274151214#1 274151214#0 -303588549 303588543#6 303588543#7 303588543#8"/>
    </person>
    <person id="8" type="pedType1" depart="4.00">
        <walk edges="-4520029#2 945024771#1 945024773#0 -4520029#5 -4520029#7 -4520029#8 -4520029#9 945024769#1 -4645396#1 945024774#3 945024774#4 433685602#1 346311427#5"/>
    </person>
    <person id="9" type="pedType1" depart="4.50">
        <walk edges="450396598 450396604 97594014#1 97594014#0 945024775#1 945024772#3 423191015#0 24998362#3 -24998362#2 -24998362#1 161652311#9 161652311#8 161652311#7 161652311#6 161652311#5 161652311#4 161652311#3 161652311#2 161652311#1 161652311#0 -168045896#7 288283592#12 288283592#11 433685530#4 433685615 112974396#1 -112974396#2"/>
    </person>
    <person id="10" type="pedType1" depart="5.00">
        <walk edges="450396593 450396599 450396594 346311440 97594014#2 97594014#1 97594014#0 303809478#1 -423191014 423191015#2 423191019#1 423191019#0"/>
    </person>
    <person id="11" type="pedType1" depart="5.50">
        <walk edges="161652311#16 312549779#3 312549779#2 392103885#2 35834770#0 35834770#1 35834770#2 -35834771#1 423191011 -312639527#0 -312639529#0"/>
    </person>
    <person id="12" type="pedType1" depart="6.00">
        <walk edges="945024768 945024769#1 -4520029#9 -4520029#8 -4520029#7 -4520029#5 945024773#0 945024771#1 274151214#0 945024770#2 274158237#1 -4520029#1 161652311#13"/>
    </person>
    <person id="13" type="pedType1" depart="6.50">
        <walk edges="-272393855#0 938838803#2 938838803#1 455764096#1 272393837#1 272393837#0 -501462498#3 -168045896#19 -168045896#20 -272429536#1"/>
    </person>
    <person id="14" type="pedType1" depart="7.00">
        <walk edges="4520030#7 161652311#9 346311427#0 346311429 346311435"/>
    </person>
    <person id="15" type="pedType1" depart="7.50">
        <walk edges="450396594 346311440 97594014#3 -97594013#1 97594013#2 -153191823#0 -153191823#1 161652311#1 161652311#0 -168045896#7 922737182#3 922737182#2 -4060426#4 -4060426#3 -4060426#2 -4060426#1 426841790#0 -426841790#1 455776512 272386823#1 426841804"/>
    </person>
    <person id="16" type="pedType1" depart="8.00">
        <walk edges="303588543#1 303588543#2 303588543#3 303588543#4 303588543#5 -303588549 945024771#1 945024773#0"/>
    </person>
    <person id="17" type="pedType1" depart="8.50">
        <walk edges="163989143#0 922737182#2 922737182#3 168045896#7 161652311#0 161652311#1 161652311#2 161652311#3 161652311#4 161652311#5 161652311#6 161652311#7 161652311#8 161652311#9 -24998362#1 303809479#0 303809479#1 303588543#9 303588543#8 303588543#7 303588552"/>
    </person>
    <person id="18" type="pedType1" depart="9.00">
        <walk edges="4520029#1 274158237#1 945024770#2 274151214#1 274151214#2 274151214#3 35835107#1 35835107#0 312549779#2 392103885#2 35834770#0"/>
    </person>
    <person id="19" type="pedType1" depart="9.50">
        <walk edges="455828232#0 455828232#1 -4060426#4 922737182#2 922737182#3 288283592#12 288283592#11 288283592#10 -288283592#9 -288283592#8 288283592#6 -501462498#3 272393837#0 272393837#1 455764096#1 938838803#1 938838803#2 163989146#0 327643557#0 327643557#1"/>
    </person>
    <person id="20" type="pedType1" depart="10.00">
        <walk edges="423191021 273924583#1 423191033 423191026 -4520030#1 -4520030#2 -4520030#4 -4520030#5 4520030#6 4520030#7 161652311#9 161652311#8 161652311#7 161652311#6 161652311#5 161652311#4 161652311#3 161652311#2 161652311#1 161652311#0 -168045896#7 288283592#12 288283592#11 288283592#10 -288283592#9 -288283592#8 288283592#6 -501462498#3 272393837#0 272393837#1 455764096#1 938838803#1 938838803#2 163989146#0 -163989146#0"/>
    </person>
    <person id="21" type="pedType1" depart="10.50">
        <walk edges="-4520029#9 -4520029#8 -4520029#7 -4520029#5 945024773#0 945024771#1 -303588549 303588543#5 303588543#4 303588543#3 303588543#2 303588543#1 303809479#1 303809479#0 -24998362#1 161652311#9 161652311#8 161652311#7 161652311#6 161652311#5 161652311#4 161652311#3 161652311#2 161652311#1 161652311#0 -168045896#7 922737182#3 112974395#1"/>
    </person>
    <person id="22" type="pedType1" depart="11.00">
        <walk edges="-24998362#5 945024775#1 945024772#3 423191015#0 24998362#3 -24998362#2 -24998362#1 4520030#7 4520030#6 4520030#5 -4520030#4"/>
    </person>
    <person id="23" type="pedType1" depart="11.50">
        <walk edges="-272438837#0 -168045896#15 -168045896#19 -168045896#20 -272429536#1 -953228347"/>
    </person>
    <person id="24" type="pedType1" depart="12.00">
        <walk edges="371876790#2 371876790#3 371876790#4 371876790#5 83120766#0 161652311#14 161652311#13 161652311#12 161652311#11 161652311#10 161652311#9 161652311#8 161652311#7 161652311#6 161652311#5 161652311#4 161652311#3 161652311#2 161652311#1 161652311#0 -168045896#7 161766614#5"/>
    </person>
    <person id="25" type="pedType1" depart="12.50">
        <walk edges="163989140#2 938838803#1 455764096#1 272393837#1 272393837#0 -501462498#3 -168045896#15 168045896#13 -433685596#0"/>
    </person>
    <person id="27" type="pedType1" depart="13.50">
        <walk edges="391390202 161652311#17 161652311#14 161652311#13 161652311#12 161652311#11 161652311#10 161652311#9 161652311#8 161652311#7 161652311#6 161652311#5 161652311#4 161652311#3 161652311#2 161652311#1 161652311#0 168045896#6 346311439#0"/>
    </person>
    <person id="29" type="pedType1" depart="14.50">
        <walk edges="-35834771#1 423191011 -312639527#0 312639529#0 -4520029#9 -4520029#8 -4520029#7 -4520029#5 945024773#0 945024771#1 -303588549 303588543#5 303588543#4 303588543#3 303588543#2 303588543#1 303809479#1 303809479#0 -24998362#1 161652311#9 161652311#8 161652311#7 161652311#6 161652311#5 161652311#4 161652311#3 161652311#2 161652311#1 161652311#0 -168045896#7 922737182#3 922737182#2 163989143#0"/>
    </person>
    <person id="30" type="pedType1" depart="15.00">
        <walk edges="953228347 -272429536#1 -168045896#20 -168045896#19 -168045896#15 374094624#0"/>
    </person>
    <person id="31" type="pedType1" depart="15.50">
        <walk edges="303809479#0 -24998362#1 161652311#9 161652311#8 161652311#7 161652311#6 161652311#5 161652311#4 161652311#3 161652311#2 161652311#1 423144839 423144840 421561977#2 421561977#1 686961000#1 423153586"/>
    </person>
    <person id="32" type="pedType1" depart="16.00">
        <walk edges="4520030#2 -4520030#2 -4520030#4 -4520030#5 4520030#6 4520030#7 -24998362#1 -24998362#2 24998362#3 423191015#0 945024772#3 945024775#1 945024774#7 24998362#10 346311427#6 346311427#7 433685572"/>
    </person>
    <person id="33" type="pedType1" depart="16.50">
        <walk edges="-4520030#0 -4520030#1 -4520030#2 -4520030#4 -4520030#5 4520030#6 4520030#7 161652311#9 161652311#8 161652311#7 161652311#6 161652311#5 161652311#4 161652311#3 161652311#2 161652311#1 161652311#0 -168045896#7 288283592#12 288283592#11 288283592#10 -288283592#9 -288283592#8 288283592#6 -501462498#3 272393837#0 272393837#1 455764096#1 938838803#1 -163989140#1"/>
    </person>
    <person id="34" type="pedType1" depart="17.00">
        <walk edges="153191823#2 161652311#1 161652311#0 -168045896#7 288283592#12 288283592#11 288283592#10 -288283592#9 -288283592#8 288283592#6 -501462498#3 -501462498#1 -501462498#0 -58312556#4 -58312556#3"/>
    </person>
    <person id="35" type="pedType1" depart="17.50">
        <walk edges="-447779110#0 288283592#15 -288283592#14 922737182#3 922737182#2"/>
    </person>
    <person id="36" type="pedType1" depart="18.00">
        <walk edges="4645396#1 945024774#3 945024774#4 945024774#5 346311427#3 -97594014#1 97594014#2 97594014#3 -97594013#1 97594013#2 -153191823#0 153191823#1"/>
    </person>
    <person id="37" type="pedType1" depart="18.50">
        <walk edges="392096582 161766614#4 288283592#12 288283592#11 288283592#10 288283592#9 -288283592#8 288283592#6 -168045896#19 168045896#20"/>
    </person>
    <person id="38" type="pedType1" depart="19.00">
        <walk edges="690887512 433685557#1 -168045896#3 -168045896#4 168045896#6 -168045896#7 288283592#12 288283592#11 288283592#10 -288283592#9 -288283592#8 288283592#6 -501462498#3 272393837#0 272393837#1 455764096#1 938838803#1 938838803#2 -163989140#4 327643557#2 272393845#3"/>
    </person>
    <person id="39" type="pedType1" depart="19.50">
        <walk edges="-58312556#1 -58312556#2 -58312556#3 -58312556#4 -501462498#0 -501462498#1 -501462498#3 -288283592#6 -288283592#8 288283592#9 288283592#10 -288283592#11 -288283592#12 -288283592#14 288283592#15 -288283592#16 -4673735#1"/>
    </person>
    <person id="40" type="pedType1" depart="20.00">
        <walk edges="30816697#3 -288283592#6 -288283592#8 -288283592#9 288283592#10 -288283592#11 -288283592#12 168045896#7 161652311#0 161652311#1 161652311#2 161652311#3 161652311#4 161652311#5 161652311#6 161652311#7 161652311#8 161652311#9 161652311#10 161652311#11 161652311#12 161652311#13 161652311#14 83120766#0 371876790#5 -53533144#1"/>
    </person>
    <person id="41" type="pedType1" depart="20.50">
        <walk edges="346311427#2 346311427#1 346311427#0 161652311#8 161652311#7 161652311#6 161652311#5 161652311#4 161652311#3 161652311#2 161652311#1 161652311#0 -168045896#7 288283592#12 288283592#11 288283592#10 -288283592#9 -288283592#8 288283592#6 -501462498#3 -501462498#1 -501462498#0 -58312556#4 -58312556#3 -58312556#2 58312556#1"/>
    </person>
    <person id="42" type="pedType1" depart="21.00">
        <walk edges="168045896#3 433685557#1 433685557#0 97594013#3 97594013#2 97594013#1 97594014#3 -97594014#2 97594014#1 346311427#3 945024774#5 945024774#4 945024774#3 -4645396#1 -4520029#10"/>
    </person>
    <person id="43" type="pedType1" depart="21.50">
        <walk edges="97594014#2 97594014#1 97594014#0 303809478#1 -423191014 423191015#2 423191019#1 423191019#0 -4520029#7 -4520029#5 945024773#0 945024771#1 274151214#0 945024770#2 274158237#1"/>
    </person>
    <person id="44" type="pedType1" depart="22.00">
        <walk edges="-272386827#0 272386827#0 -272386821#1 272386814#0 272386814#1 938838803#6 938838803#5 938838803#4 272386813#1 163989140#5 327643557#2 327643557#1 272393845#1 272393844#1 -163989146#1"/>
    </person>
    <person id="45" type="pedType1" depart="22.50">
        <walk edges="-273924582#1 273924582#2 4520030#6 4520030#7 -24998362#1 303809479#0 303809479#1 303588543#1 303588543#2 303588543#3 303588543#4 303588543#5 -303588549 274151214#0 274151214#1 274151214#2 274151214#3 35835107#1 35835107#0"/>
    </person>
    <person id="46" type="pedType1" depart="23.00">
        <walk edges="433685605 433685530#1 433685530#0 288283592#9 -288283592#10 -288283592#11 -288283592#12 168045896#7 161652311#0 161652311#1 161652311#2 161652311#3 161652311#4 161652311#5 161652311#6 161652311#7 161652311#8 161652311#9 -24998362#1 -24998362#2 24998362#3"/>
    </person>
    <person id="47" type="pedType1" depart="23.50">
        <walk edges="-168045896#3 -168045896#4 168045896#6 -168045896#7 288283592#12 288283592#11 288283592#10 -288283592#9 -288283592#8 288283592#6 -501462498#3 272393837#0 272393837#1 455764096#1 938838803#1 938838803#2 163989146#0"/>
    </person>
    <person id="48" type="pedType1" depart="24.00">
        <walk edges="97594014#1 97594014#0 945024775#1 945024772#3 423191015#0 24998362#3 -24998362#2 -24998362#1 161652311#9 161652311#8 161652311#7 161652311#6 161652311#5 161652311#4 161652311#3 161652311#2 161652311#1 161652311#0 -168045896#7 288283592#12 288283592#11 288283592#10 288283592#9"/>
    </person>
    <person id="51" type="pedType1" depart="25.50">
        <walk edges="423144839 161652311#1 161652311#2 161652311#3 161652311#4 161652311#5 161652311#6 161652311#7 161652311#8 161652311#9 -24998362#1 303809479#0 303809479#1 303588543#1 303588543#2"/>
    </person>
    <person id="52" type="pedType1" depart="26.00">
        <walk edges="-58312556#2 -58312556#3 -58312556#4 -501462498#0 -501462498#1 -501462498#3 -168045896#15 374094624#0"/>
    </person>
    <person id="53" type="pedType1" depart="26.50">
        <walk edges="-273924584#0 -157028287#0 -4520030#0 -4520030#1 -4520030#2 -4520030#4 -4520030#5 4520030#6 4520030#7 161652311#9 161652311#8 161652311#7 161652311#6 161652311#5 161652311#4 161652311#3 161652311#2 161652311#1 161652311#0 -168045896#7 288283592#12 288283592#11 288283592#10 -288283592#9 -288283592#8 288283592#6 -501462498#3 272393837#0 272393837#1 455764096#1 938838803#1 938838803#2 938838803#3 938838803#4 938838803#5 938838803#6 272386814#2"/>
    </person>
    <person id="54" type="pedType1" depart="27.00">
        <walk edges="272393844#0 272393845#1 327643557#1 327643557#2 163989140#5 272386813#1 938838803#4 938838803#5 938838803#6"/>
    </person>
    <person id="55" type="pedType1" depart="27.50">
        <walk edges="4645396#1 945024769#1 -4520029#9 -4520029#8 -4520029#7 -4520029#5 945024773#0 945024771#1 -303588549 303588543#5 303588543#4 303588543#3 303588543#2 303588543#1 303809479#1 303809479#0 -24998362#1 161652311#9 161652311#8 161652311#7 161652311#6 161652311#5 161652311#4 161652311#3 161652311#2 161652311#1 161652311#0 -168045896#7 288283592#12 288283592#11 288283592#10 -288283592#9 -288283592#8 288283592#6 -501462498#3 -501462498#1 -501462498#0 -58312556#4 -58312556#3 -58312556#2 -58312556#1 -58312556#0"/>
    </person>
    <person id="56" type="pedType1" depart="28.00">
        <walk edges="274151217#0 274151217#1 945024774#3 -4645396#1 945024769#1 -4520029#9 -4520029#8 -4520029#7 -4520029#5 945024773#0 945024771#1 -303588549 303588543#5 303588543#4 303588543#3 303588543#2 303588543#1 303809479#1 303809479#0 -24998362#1 161652311#9 161652311#8 161652311#7 161652311#6 161652311#5 161652311#4 161652311#3 161652311#2 161652311#1 161652311#0 -168045896#7 922737182#3 922737182#2 -4060426#4 -4060426#3 -4060426#2"/>
    </person>
    <person id="57" type="pedType1" depart="28.50">
        <walk edges="690887506 421561971 421561992 168045896#3 433685557#1 433685557#0 97594013#3 97594013#2 97594013#1 97594014#3 -97594014#2 97594014#1 346311427#3 24998362#10 346311427#6 346311427#7 346311427#8 46338790#2 46338790#1 46338790#0"/>
    </person>
    <person id="58" type="pedType1" depart="29.00">
        <walk edges="112974396#4 -112974396#4 -501462498#1 -501462498#3 -288283592#6 -288283592#8 288283592#9 288283592#10 -288283592#11 -288283592#12 168045896#7 161652311#0 161652311#1 161652311#2 161652311#3 161652311#4 161652311#5 161652311#6 161652311#7 161652311#8 161652311#9 161652311#10 161652311#11 161652311#12 161652311#13 161652311#14 83120766#0 371876790#5"/>
    </person>
    <person id="59" type="pedType1" depart="29.50">
        <walk edges="346311439#0 168045896#6 161652311#0 161652311#1 161652311#2 161652311#3 161652311#4 161652311#5 161652311#6 161652311#7 161652311#8 161652311#9 161652311#10 161652311#11 161652311#12 161652311#13 161652311#14 161652311#17 161652311#18 81270237#0 -851113019#2 -312549780"/>
    </person>
    <person id="60" type="pedType1" depart="30.00">
        <walk edges="433685548#0 288283592#10 -288283592#11 -288283592#12 168045896#7 161652311#0 161652311#1 161652311#2 161652311#3 161652311#4 161652311#5 161652311#6 161652311#7 161652311#8 161652311#9 -24998362#1 303809479#0 303809479#1 303588543#1 303588543#2 303588543#3 303588543#4"/>
    </person>
    <person id="61" type="pedType1" depart="30.50">
        <walk edges="433685583 450402225#1 153191825#0 153191822#1 97594014#3 -97594014#2 97594014#1 346311427#3 24998362#10 346311427#6 346311427#7 346311427#8 46338790#2 46338790#1 29030919#1 29030919#0"/>
    </person>
    <person id="62" type="pedType1" depart="31.00">
        <walk edges="-112974395#1 112974395#1 922737182#3 168045896#7 161652311#0 161652311#1 161652311#2 161652311#3 161652311#4 161652311#5 161652311#6 161652311#7 161652311#8 161652311#9 4520030#7 4520030#6 4520030#5 4520030#4 -4520030#2 -4520030#1 -4520030#0 157028287#0"/>
    </person>
    <person id="63" type="pedType1" depart="31.50">
        <walk edges="-153191823#0 450402225#3 153191826#1 161652311#5 161652311#6 161652311#7 161652311#8 161652311#9 81273347#3 81273347#2 81273347#1"/>
    </person>
    <person id="64" type="pedType1" depart="32.00">
        <walk edges="4645396#4 -35834771#3 -35834771#2 423191011 -312639527#0 312639529#0 -4520029#9 -4520029#8 -4520029#7 -4520029#5 945024773#0 945024771#1 274151214#0 945024770#2 274158237#1 4520029#2"/>
    </person>
    <person id="65" type="pedType1" depart="32.50">
        <walk edges="151850904#0 -288283592#2 -288283592#3 -168045896#19"/>
    </person>
    <person id="66" type="pedType1" depart="33.00">
        <walk edges="4645396#3 945024769#1 -4520029#9 -4520029#8 -4520029#7 -4520029#5 945024773#0 945024771#1 -303588549 303588543#5 303588543#4 303588543#3 303588543#2 303588543#1 303809479#1 303809479#0 -24998362#1 161652311#9 161652311#8 161652311#7 161652311#6 161652311#5 161652311#4 161652311#3 161652311#2 161652311#1 161652311#0 -168045896#7 288283592#12 288283592#11 288283592#10 -288283592#9 -288283592#8 288283592#6 -501462498#3 272393837#0 272393837#1 455764096#1 938838803#1"/>
    </person>
    <person id="67" type="pedType1" depart="33.50">
        <walk edges="-272386823#0 455776512 426841790#1 426841790#0 -4060426#1 -4060426#2 -4060426#3 -4060426#4 922737182#2 922737182#3 168045896#7 161652311#0 161652311#1 161652311#2 161652311#3 161652311#4 161652311#5 161652311#6 161652311#7 161652311#8 161652311#9 4520030#7 4520030#6 4520030#5 4520030#4 -4520030#2 -4520030#1 423191026 423191033 273924583#1 273924583#0"/>
    </person>
    <person id="68" type="pedType1" depart="34.00">
        <walk edges="-168045896#8 168045896#8 168045896#7 161652311#0 161652311#1 153191823#1 450402225#3 450402225#2 433685583 433685546"/>
    </person>
    <person id="69" type="pedType1" depart="34.50">
        <walk edges="433685550#1 433685550#0 433685630 433685591 346311427#6 24998362#10 945024774#7 945024775#1 945024772#3 423191015#0 24998362#3 -24998362#2 -24998362#1 161652311#9 161652311#8 161652311#7 161652311#6 161652311#5 161652311#4 161652311#3 161652311#2 161652311#1 161652311#0 -168045896#7 -288283592#14 288283592#15 -288283592#15"/>
    </person>
    <person id="70" type="pedType1" depart="35.00">
        <walk edges="272438841 81273347#1 81273347#0 83120766#0 312549779#3 35835107#0 35835107#1 274151214#3 274151214#2 274151214#1 274151214#0 -303588549 303588543#5 303588543#4 303588547"/>
    </person>
    <person id="71" type="pedType1" depart="35.50">
        <walk edges="-58312556#1 -58312556#2 -58312556#3 -58312556#4 -501462498#0 -501462498#1 -501462498#3 -288283592#6 -288283592#8 288283592#9 288283592#10 -288283592#11 -288283592#12 168045896#7 161652311#0 161652311#1 161652311#2 161652311#3 161652311#4 161652311#5 161652311#6 161652311#7 161652311#8 161652311#9 -24998362#1 -24998362#2 24998362#3 423191015#0 945024772#3 945024775#1 945024774#7 24998362#10 346311427#6 346311427#7 346311427#8 46338790#2 46338790#1"/>
    </person>
    <person id="72" type="pedType1" depart="36.00">
        <walk edges="24998362#5 423191015#0 945024772#3 945024775#1 -97594014#0 -97594014#1 97594014#2 97594014#3 -97594013#1 -450367725"/>
    </person>
    <person id="73" type="pedType1" depart="36.50">
        <walk edges="303588543#4 303588543#3 303588543#2 303588543#1 303809479#1 303809479#0 -24998362#1 161652311#9 161652311#8 161652311#7 161652311#6 161652311#5 161652311#4 161652311#3 161652311#2 161652311#1 161652311#0 -168045896#7 922737182#3 922737182#2 -4060426#4 -4060426#3 -4060426#2 -4060426#1 426841790#0 -426841790#1 455776512 272386823#1 426841804"/>
    </person>
    <person id="74" type="pedType1" depart="37.00">
        <walk edges="-433685510#1 24998362#10 346311427#3 -97594014#1 97594014#2 97594014#3 153191822#1"/>
    </person>
    <person id="75" type="pedType1" depart="37.50">
        <walk edges="97594014#0 303809478#1 -423191014 423191015#2 423191019#1 423191019#0 -4520029#7 -4520029#5 945024773#0 945024771#1 274151214#0 274151214#1 274151214#2 274151214#3 35835107#1 35835107#0 312549779#3 83120766#0 371876790#5 371876790#4 371876790#3 371876790#2 371876790#1 391390203"/>
    </person>
    <person id="76" type="pedType1" depart="38.00">
        <walk edges="272386821#1 272386827#0 -288283592#2 -288283592#3 -288283592#6 -288283592#8 288283592#9 288283592#10 -288283592#11 288283592#12"/>
    </person>
    <person id="77" type="pedType1" depart="38.50">
        <walk edges="-288283592#0 -288283592#1 -288283592#2 -288283592#3 -288283592#6 -288283592#8 288283592#9 288283592#10 -288283592#11 -288283592#12 168045896#7 161652311#0 161652311#1 161652311#2 161652311#3 161652311#4 161652311#5 161652311#6 161652311#7 161652311#8 161652311#9 -24998362#1 303809479#0 303809479#1 303588543#1 303588543#2 303588543#3 303588543#4 303588543#5 -303588549 945024771#1 945024773#0 -4520029#5 -4520029#7"/>
    </person>
    <person id="78" type="pedType1" depart="39.00">
        <walk edges="161652311#15 312549779#3 312549779#2 392103885#2 35834770#0 35834770#1 35834770#2 -35834771#1 423191011 -312639527#0 312639529#0 945024769#1 -4645396#1 945024774#3 945024774#4 433685602#1 346311427#5"/>
    </person>
    <person id="79" type="pedType1" depart="39.50">
        <walk edges="-4520030#1 -4520030#2 -4520030#4 -4520030#5 4520030#6 4520030#7 -24998362#1 303809479#0 303809479#1 303588543#1 303588543#2 303588543#3 303588543#4 303588543#5 -303588549 -4520029#2"/>
    </person>
    <person id="80" type="pedType1" depart="40.00">
        <walk edges="-168045896#9 168045896#8 168045896#7 161652311#0 161652311#1 161652311#2 161652311#3 161652311#4 161652311#5 161652311#6 161652311#7 161652311#8 161652311#9 4520030#7 4520030#6 4520030#5 35835807"/>
    </person>
    <person id="81" type="pedType1" depart="40.50">
        <walk edges="-4520030#0 -4520030#1 -4520030#2 -4520030#4 -4520030#5 4520030#6 4520030#7 -24998362#1 -24998362#2 24998362#3 423191015#0 945024772#3 945024775#1 945024774#7 450396602#2 456607199#1 450396603#0 682256121 682256123"/>
    </person>
    <person id="82" type="pedType1" depart="41.00">
        <walk edges="455781482 112974396#2 112974396#1 433685615 433685530#4 -288283592#11 -288283592#12 -168045896#8 -168045896#9"/>
    </person>
    <person id="83" type="pedType1" depart="41.50">
        <walk edges="-455776512 426841790#1 426841790#0 -4060426#1 -4060426#2 -4060426#3 -4060426#4 922737182#2 922737182#3 168045896#7 161652311#0 161652311#1 161652311#2 161652311#3 161652311#4 161652311#5 161652311#6 161652311#7 161652311#8 161652311#9 161652311#10 161652311#11 161652311#12 161652311#13 161652311#14 161652311#17 161652311#18 161765725 40945107#0"/>
    </person>
    <person id="84" type="pedType1" depart="42.00">
        <walk edges="-450396602#1 -450396602#2 945024774#7 945024775#1 945024772#3 423191015#0 24998362#3 -24998362#2 -24998362#1 161652311#9 161652311#8 161652311#7 161652311#6 161652311#5 161652311#4 161652311#3 161652311#2 161652311#1 161652311#0 -168045896#7 -288283592#14 288283592#15 -288283592#16 288283592#18 -288283592#20"/>
    </person>
    <person id="85" type="pedType1" depart="42.50">
        <walk edges="851113019#2 -312549780 -392103885#1 35834770#0 35834770#1 35834770#2 -35834771#1 423191011 312639527#1"/>
    </person>
    <person id="86" type="pedType1" depart="43.00">
        <walk edges="272438835#1 81273347#1 81273347#2 81273347#3 161652311#9 161652311#8 161652311#7 161652311#6 161652311#5 161652311#4 161652311#3 161652311#2 161652311#1 161652311#0 -168045896#7 -168045896#8 -168045896#9 168045896#10 272438832#2 433685536#0 433685536#1 433685596#0"/>
    </person>
    <person id="87" type="pedType1" depart="43.50">
        <walk edges="450396594 346311440 97594014#3 -97594013#1 97594013#2 -153191823#0 -153191823#1 161652311#1 161652311#0 -168045896#7 922737182#3 922737182#2 -4060426#4 -4060426#3 -4060426#2 -4060426#1 426841790#0 -426841790#0"/>
    </person>
    <person id="88" type="pedType1" depart="44.00">
        <walk edges="-272429536#1 -168045896#20 -168045896#19 -501462498#3 272393837#0 272393837#1 455764096#1 938838803#1 938838803#2 938838803#3 272386813#1"/>
    </person>
    <person id="89" type="pedType1" depart="44.50">
        <walk edges="24998362#7 945024775#1 945024772#3 423191015#0 24998362#3 -24998362#2 -24998362#1 161652311#9 161652311#8 161652311#7 161652311#6 161652311#5 161652311#4 161652311#3 161652311#2 161652311#1 161652311#0 -168045896#7 -168045896#8 -168045896#9 168045896#10 272438832#2 272438832#1 272438832#0"/>
    </person>
    <person id="91" type="pedType1" depart="45.50">
        <walk edges="945024775#1 945024772#3 423191015#0 24998362#3 -24998362#2 -24998362#1 81273347#3 81273347#2 81273347#1 -272438835#0"/>
    </person>
    <person id="92" type="pedType1" depart="46.00">
        <walk edges="168045896#6 161652311#0 161652311#1 161652311#2 161652311#3 161652311#4 161652311#5 161652311#6 161652311#7 161652311#8 161652311#9 161652311#10 161652311#11 161652311#12 161652311#13 161652311#14 161652311#15"/>
    </person>
    <person id="93" type="pedType1" depart="46.50">
        <walk edges="455828232#0 455828232#1 -4060426#4 922737182#2 112974395#1 112974395#2 112974395#3 -4673735#2"/>
    </person>
    <person id="94" type="pedType1" depart="47.00">
        <walk edges="-426841790#0 -426841790#1 455776512 272386823#1 -272386823#2 -272386823#3 -58312556#2 -58312556#3 -58312556#4 -163989140#0 455764096#0 938838803#1 938838803#2 938838803#3 938838803#4 938838803#5 272386835#1 -163989140#8 272393822#1 272393822#0"/>
    </person>
    <person id="95" type="pedType1" depart="47.50">
        <walk edges="24998362#3 -24998362#2 -24998362#1 161652311#9 161652311#8 161652311#7 161652311#6 161652311#5 161652311#4 161652311#3 161652311#2 161652311#1 161652311#0 -168045896#7 288283592#12 288283592#11 288283592#10 -288283592#9 -288283592#8 288283592#6 -953228348#0"/>
    </person>
    <person id="96" type="pedType1" depart="48.00">
        <walk edges="-4673735#3 -4673735#2 -4673735#1 288283592#16 288283592#15 -288283592#14 81270236#4"/>
    </person>
    <person id="98" type="pedType1" depart="49.00">
        <walk edges="303588547 303588543#4 303588543#5 -303588549 945024771#1 945024773#0 -4520029#5 -4520029#7 -4520029#8 -4520029#9 945024769#1 -4645396#1 945024774#3 945024774#4 433685602#1 16786171#1 -16786171#2"/>
    </person>
    <person id="99" type="pedType1" depart="49.50">
        <walk edges="97594014#3 -97594014#2 97594014#1 97594014#0 303809478#1 -423191014 423191015#2 423191019#1 423191019#0 -4520029#7 4520029#7"/>
    </person>
    <person id="100" type="pedType1" depart="50.00">
        <walk edges="945024772#1 945024773#1 945024773#0 945024771#1 274151214#0 274151214#1 274151214#2 274151214#3 35835107#1 35835107#0 312549779#3 161652311#17 161652311#18 81270237#0 81270237#1"/>
    </person>
    <person id="101" type="pedType1" depart="50.50">