<?xml version="1.0" encoding="UTF-8"?>

<!-- generated on 2022-05-06 16:13:38 by Eclipse SUMO duarouter Version 1.13.0
<configuration xmlns:xsi="http://www.w3.org/2001/XMLSchema-instance" xsi:noNamespaceSchemaLocation="http://sumo.dlr.de/xsd/duarouterConfiguration.xsd">

    <input>
        <net-file value="hm_map_ped.net.xml"/>
        <route-files value="sc3_50_y.trips.xml"/>
    </input>

    <output>
        <output-file value="sc3_50_y.rou.xml"/>
        <alternatives-output value="sc3_50_y.rou.alt.xml"/>
    </output>

    <report>
        <ignore-errors value="true"/>
    </report>

</configuration>
-->

<routes xmlns:xsi="http://www.w3.org/2001/XMLSchema-instance" xsi:noNamespaceSchemaLocation="http://sumo.dlr.de/xsd/routes_file.xsd">
    <vType id="pedType1" maxSpeed="1.40" speedFactor="normc(1.00,0.19,0.14,1.43)"/>
    <person id="0" type="pedType1" depart="0.00">
        <walk edges="371876790#5 83120766#0 161652311#14 161652311#13 161652311#12 161652311#11 161652311#10 4520030#7 4520030#6 4520030#5 4520030#4 -4520030#2 -4520030#1 -4520030#0 -157028287#0 -157028287#1"/>
    </person>
    <person id="1" type="pedType1" depart="0.50">
        <walk edges="-851113019#2 81270237#0 161652311#18 161652311#17 312549779#3 35835107#0 35835107#1 274151214#3 274151214#2 274151214#1 274151214#0 945024771#1 945024773#0 -4520029#5"/>
    </person>
    <person id="2" type="pedType1" depart="1.00">
        <walk edges="433685510#0 -433685510#0 -433685510#1 24998362#10 346311427#3 -97594014#1 -97594014#2 97594014#3 -97594013#1 97594013#2 -97594013#3 -433685557#0 433685557#1 -168045896#3 421561992 421561971 686961000#3 686961000#2 686961000#1 421561977#0"/>
    </person>
    <person id="3" type="pedType1" depart="1.50">
        <walk edges="501462498#2 -501462498#1 -501462498#0 -58312556#4 -58312556#3 -58312556#2 272386823#3 272386823#2 -272386823#1"/>
    </person>
    <person id="4" type="pedType1" depart="2.00">
        <walk edges="24998362#3 -24998362#2 -24998362#1 161652311#9 161652311#8 161652311#7 161652311#6 161652311#5 161652311#4 161652311#3 161652311#2 161652311#1 161652311#0 -168045896#7 288283592#12 288283592#11 288283592#10 -288283592#9 -288283592#8 288283592#6 -501462498#3 272393837#0 272393837#1 455764096#1 455764096#0 -163989140#0"/>
    </person>
    <person id="5" type="pedType1" depart="2.50">
        <walk edges="-4520029#1 274158237#1 945024770#2 274151214#1 274151214#2 274151214#3 35835107#1 35835107#0 312549779#2 274151220"/>
    </person>
    <person id="6" type="pedType1" depart="3.00">
        <walk edges="-157028287#2 157028287#2 -157028287#1 -157028287#0 -4520030#0 -4520030#1 -4520030#2 -4520030#4 -4520030#5 4520030#6 4520030#7 161652311#9 161652311#8 161652311#7 161652311#6 161652311#5 161652311#4 161652311#3 161652311#2 161652311#1 161652311#0 -168045896#7 922737182#3 922737182#2 -429102599#1"/>
    </person>
    <person id="7" type="pedType1" depart="3.50">
        <walk edges="391390203 371876790#1 371876790#2 371876790#3 371876790#4 371876790#5 83120766#0 312549779#3 35835107#0 35835107#1 274151214#3 274151214#2 274151214#1 274151214#0 -303588549 303588543#6 303588543#7 303588543#8"/>
    </person>
    <person id="8" type="pedType1" depart="4.00">
        <walk edges="-4520029#2 945024771#1 945024773#0 -4520029#5 -4520029#7 -4520029#8 -4520029#9 945024769#1 -4645396#1 945024774#3 945024774#4 433685602#1 346311427#5"/>
    </person>
    <person id="9" type="pedType1" depart="4.50">
        <walk edges="450396598 450396604 97594014#1 97594014#0 945024775#1 945024772#3 423191015#0 24998362#3 -24998362#2 -24998362#1 161652311#9 161652311#8 161652311#7 161652311#6 161652311#5 161652311#4 161652311#3 161652311#2 161652311#1 161652311#0 -168045896#7 288283592#12 288283592#11 433685530#4 433685615 112974396#1 -112974396#2"/>
    </person>
    <person id="10" type="pedType1" depart="5.00">
        <walk edges="450396593 450396599 450396594 346311440 97594014#2 97594014#1 97594014#0 303809478#1 -423191014 423191015#2 423191019#1 423191019#0"/>
    </person>
    <person id="11" type="pedType1" depart="5.50">
        <walk edges="161652311#16 312549779#3 312549779#2 392103885#2 35834770#0 35834770#1 35834770#2 -35834771#1 423191011 -312639527#0 -312639529#0"/>
    </person>
    <person id="12" type="pedType1" depart="6.00">
        <walk edges="945024768 945024769#1 -4520029#9 -4520029#8 -4520029#7 -4520029#5 945024773#0 945024771#1 274151214#0 945024770#2 274158237#1 -4520029#1 161652311#13"/>
    </person>
    <person id="13" type="pedType1" depart="6.50">
        <walk edges="-272393855#0 938838803#2 938838803#1 455764096#1 272393837#1 272393837#0 -501462498#3 -168045896#19 -168045896#20 -272429536#1"/>
    </person>
    <person id="14" type="pedType1" depart="7.00">
        <walk edges="4520030#7 161652311#9 346311427#0 346311429 346311435"/>
    </person>
    <person id="15" type="pedType1" depart="7.50">
        <walk edges="450396594 346311440 97594014#3 -97594013#1 97594013#2 -153191823#0 -153191823#1 161652311#1 161652311#0 -168045896#7 922737182#3 922737182#2 -4060426#4 -4060426#3 -4060426#2 -4060426#1 426841790#0 -426841790#1 455776512 272386823#1 426841804"/>
    </person>
    <person id="16" type="pedType1" depart="8.00">
        <walk edges="303588543#1 303588543#2 303588543#3 303588543#4 303588543#5 -303588549 945024771#1 945024773#0"/>
    </person>
    <person id="17" type="pedType1" depart="8.50">
        <walk edges="163989143#0 922737182#2 922737182#3 168045896#7 161652311#0 161652311#1 161652311#2 161652311#3 161652311#4 161652311#5 161652311#6 161652311#7 161652311#8 161652311#9 -24998362#1 303809479#0 303809479#1 303588543#9 303588543#8 303588543#7 303588552"/>
    </person>
    <person id="18" type="pedType1" depart="9.00">
        <walk edges="4520029#1 274158237#1 945024770#2 274151214#1 274151214#2 274151214#3 35835107#1 35835107#0 312549779#2 392103885#2 35834770#0"/>
    </person>
    <person id="19" type="pedType1" depart="9.50">
        <walk edges="455828232#0 455828232#1 -4060426#4 922737182#2 922737182#3 288283592#12 288283592#11 288283592#10 -288283592#9 -288283592#8 288283592#6 -501462498#3 272393837#0 272393837#1 455764096#1 938838803#1 938838803#2 163989146#0 327643557#0 327643557#1"/>
    </person>
    <person id="20" type="pedType1" depart="10.00">
        <walk edges="423191021 273924583#1 423191033 423191026 -4520030#1 -4520030#2 -4520030#4 -4520030#5 4520030#6 4520030#7 161652311#9 161652311#8 161652311#7 161652311#6 161652311#5 161652311#4 161652311#3 161652311#2 161652311#1 161652311#0 -168045896#7 288283592#12 288283592#11 288283592#10 -288283592#9 -288283592#8 288283592#6 -501462498#3 272393837#0 272393837#1 455764096#1 938838803#1 938838803#2 163989146#0 -163989146#0"/>
    </person>
    <person id="21" type="pedType1" depart="10.50">
        <walk edges="-4520029#9 -4520029#8 -4520029#7 -4520029#5 945024773#0 945024771#1 -303588549 303588543#5 303588543#4 303588543#3 303588543#2 303588543#1 303809479#1 303809479#0 -24998362#1 161652311#9 161652311#8 161652311#7 161652311#6 161652311#5 161652311#4 161652311#3 161652311#2 161652311#1 161652311#0 -168045896#7 922737182#3 112974395#1"/>
    </person>
    <person id="22" type="pedType1" depart="11.00">
        <walk edges="-24998362#5 945024775#1 945024772#3 423191015#0 24998362#3 -24998362#2 -24998362#1 4520030#7 4520030#6 4520030#5 -4520030#4"/>
    </person>
    <person id="23" type="pedType1" depart="11.50">
        <walk edges="-272438837#0 -168045896#15 -168045896#19 -168045896#20 -272429536#1 -953228347"/>
    </person>
    <person id="24" type="pedType1" depart="12.00">
        <walk edges="371876790#2 371876790#3 371876790#4 371876790#5 83120766#0 161652311#14 161652311#13 161652311#12 161652311#11 161652311#10 161652311#9 161652311#8 161652311#7 161652311#6 161652311#5 161652311#4 161652311#3 161652311#2 161652311#1 161652311#0 -168045896#7 161766614#5"/>
    </person>
    <person id="25" type="pedType1" depart="12.50">
        <walk edges="163989140#2 938838803#1 455764096#1 272393837#1 272393837#0 -501462498#3 -168045896#15 168045896#13 -433685596#0"/>
    </person>
    <person id="27" type="pedType1" depart="13.50">
        <walk edges="391390202 161652311#17 161652311#14 161652311#13 161652311#12 161652311#11 161652311#10 161652311#9 161652311#8 161652311#7 161652311#6 161652311#5 161652311#4 161652311#3 161652311#2 161652311#1 161652311#0 168045896#6 346311439#0"/>
    </person>
    <person id="29" type="pedType1" depart="14.50">
        <walk edges="-35834771#1 423191011 -312639527#0 312639529#0 -4520029#9 -4520029#8 -4520029#7 -4520029#5 945024773#0 945024771#1 -303588549 303588543#5 303588543#4 303588543#3 303588543#2 303588543#1 303809479#1 303809479#0 -24998362#1 161652311#9 161652311#8 161652311#7 161652311#6 161652311#5 161652311#4 161652311#3 161652311#2 161652311#1 161652311#0 -168045896#7 922737182#3 922737182#2 163989143#0"/>
    </person>
    <person id="30" type="pedType1" depart="15.00">
        <walk edges="953228347 -272429536#1 -168045896#20 -168045896#19 -168045896#15 374094624#0"/>
    </person>
    <person id="31" type="pedType1" depart="15.50">
        <walk edges="303809479#0 -24998362#1 161652311#9 161652311#8 161652311#7 161652311#6 161652311#5 161652311#4 161652311#3 161652311#2 161652311#1 423144839 423144840 421561977#2 421561977#1 686961000#1 423153586"/>
    </person>
    <person id="32" type="pedType1" depart="16.00">
        <walk edges="4520030#2 -4520030#2 -4520030#4 -4520030#5 4520030#6 4520030#7 -24998362#1 -24998362#2 24998362#3 423191015#0 945024772#3 945024775#1 945024774#7 24998362#10 346311427#6 346311427#7 433685572"/>
    </person>
    <person id="33" type="pedType1" depart="16.50">
        <walk edges="-4520030#0 -4520030#1 -4520030#2 -4520030#4 -4520030#5 4520030#6 4520030#7 161652311#9 161652311#8 161652311#7 161652311#6 161652311#5 161652311#4 161652311#3 161652311#2 161652311#1 161652311#0 -168045896#7 288283592#12 288283592#11 288283592#10 -288283592#9 -288283592#8 288283592#6 -501462498#3 272393837#0 272393837#1 455764096#1 938838803#1 -163989140#1"/>
    </person>
    <person id="34" type="pedType1" depart="17.00">
        <walk edges="153191823#2 161652311#1 161652311#0 -168045896#7 288283592#12 288283592#11 288283592#10 -288283592#9 -288283592#8 288283592#6 -501462498#3 -501462498#1 -501462498#0 -58312556#4 -58312556#3"/>
    </person>
    <person id="35" type="pedType1" depart="17.50">
        <walk edges="-447779110#0 288283592#15 -288283592#14 922737182#3 922737182#2"/>
    </person>
    <person id="36" type="pedType1" depart="18.00">
        <walk edges="4645396#1 945024774#3 945024774#4 945024774#5 346311427#3 -97594014#1 97594014#2 97594014#3 -97594013#1 97594013#2 -153191823#0 153191823#1"/>
    </person>
    <person id="37" type="pedType1" depart="18.50">
        <walk edges="392096582 161766614#4 288283592#12 288283592#11 288283592#10 288283592#9 -288283592#8 288283592#6 -168045896#19 168045896#20"/>
    </person>
    <person id="38" type="pedType1" depart="19.00">
        <walk edges="690887512 433685557#1 -168045896#3 -168045896#4 168045896#6 -168045896#7 288283592#12 288283592#11 288283592#10 -288283592#9 -288283592#8 288283592#6 -501462498#3 272393837#0 272393837#1 455764096#1 938838803#1 938838803#2 -163989140#4 327643557#2 272393845#3"/>
    </person>
    <person id="39" type="pedType1" depart="19.50">
        <walk edges="-58312556#1 -58312556#2 -58312556#3 -58312556#4 -501462498#0 -501462498#1 -501462498#3 -288283592#6 -288283592#8 288283592#9 288283592#10 -288283592#11 -288283592#12 -288283592#14 288283592#15 -288283592#16 -4673735#1"/>
    </person>
    <person id="40" type="pedType1" depart="20.00">
        <walk edges="30816697#3 -288283592#6 -288283592#8 -288283592#9 288283592#10 -288283592#11 -288283592#12 168045896#7 161652311#0 161652311#1 161652311#2 161652311#3 161652311#4 161652311#5 161652311#6 161652311#7 161652311#8 161652311#9 161652311#10 161652311#11 161652311#12 161652311#13 161652311#14 83120766#0 371876790#5 -53533144#1"/>
    </person>
    <person id="41" type="pedType1" depart="20.50">
        <walk edges="346311427#2 346311427#1 346311427#0 161652311#8 161652311#7 161652311#6 161652311#5 161652311#4 161652311#3 161652311#2 161652311#1 161652311#0 -168045896#7 288283592#12 288283592#11 288283592#10 -288283592#9 -288283592#8 288283592#6 -501462498#3 -501462498#1 -501462498#0 -58312556#4 -58312556#3 -58312556#2 58312556#1"/>
    </person>
    <person id="42" type="pedType1" depart="21.00">
        <walk edges="168045896#3 433685557#1 433685557#0 97594013#3 97594013#2 97594013#1 97594014#3 -97594014#2 97594014#1 346311427#3 945024774#5 945024774#4 945024774#3 -4645396#1 -4520029#10"/>
    </person>
    <person id="43" type="pedType1" depart="21.50">
        <walk edges="97594014#2 97594014#1 97594014#0 303809478#1 -423191014 423191015#2 423191019#1 423191019#0 -4520029#7 -4520029#5 945024773#0 945024771#1 274151214#0 945024770#2 274158237#1"/>
    </person>
    <person id="44" type="pedType1" depart="22.00">
        <walk edges="-272386827#0 272386827#0 -272386821#1 272386814#0 272386814#1 938838803#6 938838803#5 938838803#4 272386813#1 163989140#5 327643557#2 327643557#1 272393845#1 272393844#1 -163989146#1"/>
    </person>
    <person id="45" type="pedType1" depart="22.50">
        <walk edges="-273924582#1 273924582#2 4520030#6 4520030#7 -24998362#1 303809479#0 303809479#1 303588543#1 303588543#2 303588543#3 303588543#4 303588543#5 -303588549 274151214#0 274151214#1 274151214#2 274151214#3 35835107#1 35835107#0"/>
    </person>
    <person id="46" type="pedType1" depart="23.00">
        <walk edges="433685605 433685530#1 433685530#0 288283592#9 -288283592#10 -288283592#11 -288283592#12 168045896#7 161652311#0 161652311#1 161652311#2 161652311#3 161652311#4 161652311#5 161652311#6 161652311#7 161652311#8 161652311#9 -24998362#1 -24998362#2 24998362#3"/>
    </person>
    <person id="47" type="pedType1" depart="23.50">
        <walk edges="-168045896#3 -168045896#4 168045896#6 -168045896#7 288283592#12 288283592#11 288283592#10 -288283592#9 -288283592#8 288283592#6 -501462498#3 272393837#0 272393837#1 455764096#1 938838803#1 938838803#2 163989146#0"/>
    </person>
    <person id="48" type="pedType1" depart="24.00">
        <walk edges="97594014#1 97594014#0 945024775#1 945024772#3 423191015#0 24998362#3 -24998362#2 -24998362#1 161652311#9 161652311#8 161652311#7 161652311#6 161652311#5 161652311#4 161652311#3 161652311#2 161652311#1 161652311#0 -168045896#7 288283592#12 288283592#11 288283592#10 288283592#9"/>
    </person>
</routes>
