<?xml version="1.0" encoding="UTF-8"?>

<!-- generated on 2023-06-01 14:59:40.744086 by netdiff.py v1_17_0+0608-a6a27b83562
<configuration>
    <dest value="/home/vm-sts/repos/crownet/crownet/simulations/multi_enb/sumo/munich/muc_005/muc.net.xml.gz"/>
    <outprefix value="2023-06-01_16-58_diff"/>
    <patch-on-import value="True"/>
    <remove-plain value="True"/>
    <source value="/home/vm-sts/repos/crownet/crownet/simulations/multi_enb/sumo/munich/muc_005/muc_base.net.xml.gz"/>
</configuration>
-->

<tlLogics version="1.16" xmlns:xsi="http://www.w3.org/2001/XMLSchema-instance" xsi:noNamespaceSchemaLocation="http://sumo.dlr.de/xsd/tllogic_file.xsd">
    <!-- Deleted Elements -->
    <!-- implicit via changed node type: <delete id="1875979377" programID="0"/> -->
    <!-- implicit via changed node type: <delete id="1875979408" programID="0"/> -->
    <!-- implicit via changed node type: <delete id="GS_29565896" programID="0"/> -->
    <!-- implicit via changed node type: <delete id="cluster_1078841350_1078841362_1078841396" programID="0"/> -->
    <!-- implicit via changed node type: <delete id="cluster_1371844380_1956144_4834103976_4837213504_#2more" programID="0"/> -->
    <delete from="-1168569266#0" fromLane="0" to="376401312#0" toLane="1" linkIndex="0" tl="GS_29565896"/>
    <delete from="-1168569266#0" fromLane="0" to="290407136#24" toLane="0" linkIndex="1" tl="GS_29565896"/>
    <delete from="-1168569266#0" fromLane="0" to="34114237#0" toLane="0" linkIndex="2" tl="GS_29565896"/>
    <delete from="-273936882#5" fromLane="1" to="-421746940" toLane="1" linkIndex="4" tl="joinedS_1776057561_3816135292_3816135296"/>
    <delete from="-273936882#5" fromLane="1" to="-273936882#4" toLane="1" linkIndex="5" tl="joinedS_1776057561_3816135292_3816135296"/>
    <delete from="-273936882#5" fromLane="1" to="409064420" toLane="1" linkIndex="6" tl="joinedS_1776057561_3816135292_3816135296"/>
    <delete from="-38926856#2" fromLane="1" to="4073969" toLane="0" linkIndex="5" tl="cluster_1371844380_1956144_4834103976_4837213504_#2more"/>
    <delete from="-38926856#2" fromLane="1" to="-222870381#6" toLane="1" linkIndex="6" tl="cluster_1371844380_1956144_4834103976_4837213504_#2more"/>
    <delete from="-38926856#2" fromLane="1" to="105847792#0" toLane="1" linkIndex="7" tl="cluster_1371844380_1956144_4834103976_4837213504_#2more"/>
    <delete from="-38926856#2" fromLane="1" to="4073959#1" toLane="1" linkIndex="8" tl="cluster_1371844380_1956144_4834103976_4837213504_#2more"/>
    <delete from="-38926856#2" fromLane="1" to="38926856#1" toLane="1" linkIndex="9" tl="cluster_1371844380_1956144_4834103976_4837213504_#2more"/>
    <delete from="-38926859#4" fromLane="1" to="-38926859#0" toLane="1" linkIndex="1" tl="cluster_516460013_927139127"/>
    <delete from="-39321854#1" fromLane="0" to="47229154#7" toLane="1" linkIndex="0" tl="cluster_1078841350_1078841362_1078841396"/>
    <delete from="-39321854#1" fromLane="0" to="-39321854#0" toLane="0" linkIndex="1" tl="cluster_1078841350_1078841362_1078841396"/>
    <delete from="-39321854#1" fromLane="1" to="-39321854#0" toLane="1" linkIndex="2" tl="cluster_1078841350_1078841362_1078841396"/>
    <delete from="-39321854#1" fromLane="2" to="-39321854#0" toLane="2" linkIndex="3" tl="cluster_1078841350_1078841362_1078841396"/>
    <delete from="1020561101#14" fromLane="0" to="1020561101#15" toLane="0" linkIndex="-1" tl="3816135293"/>
    <delete from="139633028#1" fromLane="1" to="38926856#1" toLane="1" linkIndex="10" tl="cluster_1371844380_1956144_4834103976_4837213504_#2more"/>
    <delete from="139633028#1" fromLane="1" to="-222870381#6" toLane="1" linkIndex="11" tl="cluster_1371844380_1956144_4834103976_4837213504_#2more"/>
    <delete from="139633028#1" fromLane="1" to="105847792#0" toLane="1" linkIndex="12" tl="cluster_1371844380_1956144_4834103976_4837213504_#2more"/>
    <delete from="139633028#1" fromLane="1" to="4073959#1" toLane="1" linkIndex="13" tl="cluster_1371844380_1956144_4834103976_4837213504_#2more"/>
    <delete from="151866165#2" fromLane="0" to="151866165#4" toLane="0" linkIndex="14" tl="joinedS_1776057561_3816135292_3816135296"/>
    <delete from="151866165#2" fromLane="1" to="151866165#4" toLane="1" linkIndex="15" tl="joinedS_1776057561_3816135292_3816135296"/>
    <delete from="151866165#2" fromLane="2" to="151866165#4" toLane="2" linkIndex="16" tl="joinedS_1776057561_3816135292_3816135296"/>
    <delete from="152731731" fromLane="0" to="325790768" toLane="0" linkIndex="0" tl="cluster_1015904822_1015930056_1024673957_1615790462_#12more"/>
    <delete from="152731731" fromLane="0" to="-45357161#0" toLane="1" linkIndex="1" tl="cluster_1015904822_1015930056_1024673957_1615790462_#12more"/>
    <delete from="152731731" fromLane="0" to="38820706#0" toLane="1" linkIndex="2" tl="cluster_1015904822_1015930056_1024673957_1615790462_#12more"/>
    <delete from="152731731" fromLane="1" to="3960333#1" toLane="0" linkIndex="3" tl="cluster_1015904822_1015930056_1024673957_1615790462_#12more"/>
    <delete from="152731731" fromLane="2" to="3960333#1" toLane="1" linkIndex="4" tl="cluster_1015904822_1015930056_1024673957_1615790462_#12more"/>
    <delete from="152731731" fromLane="3" to="186282747#1" toLane="0" linkIndex="5" tl="cluster_1015904822_1015930056_1024673957_1615790462_#12more"/>
    <delete from="152731731" fromLane="4" to="186282747#1" toLane="1" linkIndex="6" tl="cluster_1015904822_1015930056_1024673957_1615790462_#12more"/>
    <delete from="152731731" fromLane="4" to="995028536" toLane="0" linkIndex="7" tl="cluster_1015904822_1015930056_1024673957_1615790462_#12more"/>
    <delete from="152731731" fromLane="4" to="35392078" toLane="1" linkIndex="8" tl="cluster_1015904822_1015930056_1024673957_1615790462_#12more"/>
    <delete from="167847595#0" fromLane="0" to="167847595#3" toLane="0" linkIndex="-1" tl="cluster_516460013_927139127"/>
    <delete from="167847595#3" fromLane="0" to="167847595#6" toLane="0" linkIndex="-1" tl="cluster_1875979399_1875979405"/>
    <delete from="167847595#6" fromLane="0" to="167847595#9" toLane="0" linkIndex="32" tl="cluster_1045830409_1045830414_1045830416_1045830433_#13more"/>
    <delete from="222870381#5" fromLane="1" to="105847792#0" toLane="1" linkIndex="20" tl="cluster_1371844380_1956144_4834103976_4837213504_#2more"/>
    <delete from="222870381#5" fromLane="1" to="4073959#1" toLane="0" linkIndex="21" tl="cluster_1371844380_1956144_4834103976_4837213504_#2more"/>
    <delete from="222870381#5" fromLane="1" to="38926856#1" toLane="1" linkIndex="22" tl="cluster_1371844380_1956144_4834103976_4837213504_#2more"/>
    <delete from="222870381#5" fromLane="1" to="4073969" toLane="1" linkIndex="23" tl="cluster_1371844380_1956144_4834103976_4837213504_#2more"/>
    <delete from="222870381#5" fromLane="1" to="-222870381#6" toLane="1" linkIndex="24" tl="cluster_1371844380_1956144_4834103976_4837213504_#2more"/>
    <delete from="287522838#0" fromLane="0" to="34114237#0" toLane="0" linkIndex="3" tl="GS_29565896"/>
    <delete from="305203771#0" fromLane="0" to="305203771#1" toLane="0" linkIndex="0" tl="1875979408"/>
    <delete from="305203771#0" fromLane="1" to="305203771#1" toLane="1" linkIndex="1" tl="1875979408"/>
    <delete from="308784465#5" fromLane="0" to="308784465#6" toLane="0" linkIndex="-1" tl="3816135295"/>
    <delete from="366792544#10" fromLane="0" to="366792544#13" toLane="0" linkIndex="73" tl="cluster_1045830409_1045830414_1045830416_1045830433_#13more"/>
    <delete from="366792544#13" fromLane="0" to="366792544#14" toLane="0" linkIndex="-1" tl="cluster_1875979399_1875979405"/>
    <delete from="366792544#14" fromLane="0" to="366792544#17" toLane="0" linkIndex="-1" tl="cluster_516460013_927139127"/>
    <delete from="38926854#0" fromLane="0" to="-222870381#6" toLane="1" linkIndex="0" tl="cluster_1371844380_1956144_4834103976_4837213504_#2more"/>
    <delete from="38926854#0" fromLane="0" to="4073959#1" toLane="0" linkIndex="1" tl="cluster_1371844380_1956144_4834103976_4837213504_#2more"/>
    <delete from="38926854#0" fromLane="1" to="4073959#1" toLane="1" linkIndex="2" tl="cluster_1371844380_1956144_4834103976_4837213504_#2more"/>
    <delete from="38926854#0" fromLane="1" to="38926856#1" toLane="1" linkIndex="3" tl="cluster_1371844380_1956144_4834103976_4837213504_#2more"/>
    <delete from="38926854#0" fromLane="1" to="4073969" toLane="1" linkIndex="4" tl="cluster_1371844380_1956144_4834103976_4837213504_#2more"/>
    <delete from="38926859#0" fromLane="1" to="38926859#2" toLane="1" linkIndex="0" tl="cluster_516460013_927139127"/>
    <delete from="39321854#0" fromLane="0" to="39321854#1" toLane="0" linkIndex="8" tl="cluster_1078841350_1078841362_1078841396"/>
    <delete from="39321854#0" fromLane="0" to="47229154#7" toLane="1" linkIndex="9" tl="cluster_1078841350_1078841362_1078841396"/>
    <delete from="39321854#0" fromLane="1" to="39321854#1" toLane="1" linkIndex="10" tl="cluster_1078841350_1078841362_1078841396"/>
    <delete from="39321854#0" fromLane="2" to="39321854#1" toLane="2" linkIndex="11" tl="cluster_1078841350_1078841362_1078841396"/>
    <delete from="42394799#5" fromLane="1" to="311413663" toLane="1" linkIndex="42" tl="cluster_3170506016_3170506018_3170506019_3170510440_#5more"/>
    <delete from="42394799#5" fromLane="1" to="42394799#6" toLane="1" linkIndex="43" tl="cluster_3170506016_3170506018_3170506019_3170510440_#5more"/>
    <delete from="42394799#5" fromLane="1" to="151786524#3" toLane="0" linkIndex="44" tl="cluster_3170506016_3170506018_3170506019_3170510440_#5more"/>
    <delete from="42394799#5" fromLane="1" to="311413661#0" toLane="1" linkIndex="45" tl="cluster_3170506016_3170506018_3170506019_3170510440_#5more"/>
    <delete from="42394799#5" fromLane="1" to="1076186593#1" toLane="1" linkIndex="46" tl="cluster_3170506016_3170506018_3170506019_3170510440_#5more"/>
    <delete from="42394799#5" fromLane="1" to="-81959912#1" toLane="1" linkIndex="47" tl="cluster_3170506016_3170506018_3170506019_3170510440_#5more"/>
    <delete from="42394799#5" fromLane="1" to="-50232911#1" toLane="0" linkIndex="48" tl="cluster_3170506016_3170506018_3170506019_3170510440_#5more"/>
    <delete from="467655365#0" fromLane="0" to="38926856#1" toLane="1" linkIndex="14" tl="cluster_1371844380_1956144_4834103976_4837213504_#2more"/>
    <delete from="467655365#0" fromLane="0" to="4073969" toLane="0" linkIndex="15" tl="cluster_1371844380_1956144_4834103976_4837213504_#2more"/>
    <delete from="467655365#0" fromLane="1" to="4073969" toLane="1" linkIndex="16" tl="cluster_1371844380_1956144_4834103976_4837213504_#2more"/>
    <delete from="467655365#0" fromLane="2" to="-222870381#6" toLane="1" linkIndex="17" tl="cluster_1371844380_1956144_4834103976_4837213504_#2more"/>
    <delete from="467655365#0" fromLane="2" to="105847792#0" toLane="1" linkIndex="19" tl="cluster_1371844380_1956144_4834103976_4837213504_#2more"/>
    <delete from="467655365#0" fromLane="2" to="4073959#1" toLane="1" linkIndex="18" tl="cluster_1371844380_1956144_4834103976_4837213504_#2more"/>
    <delete from="47229154#6" fromLane="1" to="47229154#7" toLane="1" linkIndex="12" tl="cluster_1078841350_1078841362_1078841396"/>
    <delete from="575585170" fromLane="1" to="386619835#0" toLane="1" linkIndex="2" tl="cluster_2138722653_371689510_5330131511"/>
    <delete from="575585170" fromLane="1" to="552105042" toLane="0" linkIndex="3" tl="cluster_2138722653_371689510_5330131511"/>
    <delete from="88890339#0" fromLane="1" to="88890339#3" toLane="1" linkIndex="4" tl="cluster_1078841350_1078841362_1078841396"/>
    <delete from="88890339#0" fromLane="1" to="39321854#1" toLane="0" linkIndex="5" tl="cluster_1078841350_1078841362_1078841396"/>
    <delete from="88890339#0" fromLane="1" to="47229154#7" toLane="1" linkIndex="7" tl="cluster_1078841350_1078841362_1078841396"/>
    <delete from="88890339#0" fromLane="1" to="-39321854#0" toLane="0" linkIndex="6" tl="cluster_1078841350_1078841362_1078841396"/>
    <delete from="905006825#1" fromLane="0" to="905006825#2" toLane="0" linkIndex="0" tl="1875979377"/>
    <delete from="905006825#1" fromLane="1" to="905006825#2" toLane="1" linkIndex="1" tl="1875979377"/>
    <!-- Created Elements -->
    <!-- Changed Elements -->
    <tlLogic id="cluster_1015904822_1015930056_1024673957_1615790462_#12more" programID="0" >
        <phase duration="9" maxDur="50" minDur="5" state="rrrrrrrrrrrrrrrrrrrrrrrrrrgggggggGggggGGgggggggggggggggggGGGggggggggggggggrGrrrrrrrrGrGr"/>
        <phase duration="5" state="rrrrrrrrrrrrrrrrrrrrrrrrrrgggggggGggggGGgggggggggggggggggGGGggggggggggggggrrrrrrrrrrrrrr"/>
        <phase duration="3" state="rrrrrrrrrrrrrrrrrrrrrrrrrrgggggggyggyyyygggggggggggggggggyyyggggggggggggggrrrrrrrrrrrrrr"/>
        <phase duration="6" maxDur="50" minDur="5" state="rrrrrrrrrrrrrrrrrrrrrrrrrrgggggggrggrrrrgggGggggggGggggggrrrgGGgggggggggggrrrrrrrrrrrrrr"/>
        <phase duration="3" state="rrrrrrrrrrrrrrrrrrrrrrrrrryyyyyyyryyrrrryyyyyyyyyyyyyyyyyrrryyyyyyyyyyyyyyrrrrrrrrrrrrrr"/>
        <phase duration="2" state="rrrrrrrrrrrrrrrrrrrrrrrrrrrrrrrrrrrrrrrrrrrrrrrrrrrrrrrrrrrrrrrrrrrrrrrrrrrrrrrrrrrrrrrr"/>
        <phase duration="12" maxDur="50" minDur="5" state="gGgGggggGgggggrrrrrrrrrrrrrrrrrrrrrrrrrrrrrrrrrrrrrrrrrrrrrrrrrrrrrrrrrrrrGrGGGGrrrGGrrr"/>
        <phase duration="5" state="gGgGggggGgggggrrrrrrrrrrrrrrrrrrrrrrrrrrrrrrrrrrrrrrrrrrrrrrrrrrrrrrrrrrrrrrrrrrrrrrrrrr"/>
        <phase duration="3" state="yyyyyyyyyyyyyyrrrrrrrrrrrrrrrrrrrrrrrrrrrrrrrrrrrrrrrrrrrrrrrrrrrrrrrrrrrrrrrrrrrrrrrrrr"/>
        <phase duration="12" maxDur="50" minDur="5" state="rrrrrrrrrrrrrrgGGggrrrrrrrrrrrrrrrrrrrrrrrrrrrrrrrrrrrrrrrrrrrrrrrrrrrrrrrGrGGGGGGGGrGGG"/>
        <phase duration="5" state="rrrrrrrrrrrrrrgGGggrrrrrrrrrrrrrrrrrrrrrrrrrrrrrrrrrrrrrrrrrrrrrrrrrrrrrrrrrrrrrrrrrrrrr"/>
        <phase duration="3" state="rrrrrrrrrrrrrryyyyyrrrrrrrrrrrrrrrrrrrrrrrrrrrrrrrrrrrrrrrrrrrrrrrrrrrrrrrrrrrrrrrrrrrrr"/>
        <phase duration="2" state="rrrrrrrrrrrrrrrrrrrrrrrrrrrrrrrrrrrrrrrrrrrrrrrrrrrrrrrrrrrrrrrrrrrrrrrrrrrrrrrrrrrrrrrr"/>
        <phase duration="12" maxDur="50" minDur="5" state="rrrrrrrrrrrrrrrrrrrggGGGGGrrrrrrrrrrrrrrrrrrrrrrrrrrrrrrrrrrrrrrrrrrrrrrrrGGGrGGrrrGGrGG"/>
        <phase duration="5" state="rrrrrrrrrrrrrrrrrrrggGGGGGrrrrrrrrrrrrrrrrrrrrrrrrrrrrrrrrrrrrrrrrrrrrrrrrrrrrrrrrrrrrrr"/>
        <phase duration="3" state="rrrrrrrrrrrrrrrrrrryyyyyyyrrrrrrrrrrrrrrrrrrrrrrrrrrrrrrrrrrrrrrrrrrrrrrrrrrrrrrrrrrrrrr"/>
    </tlLogic>
    <tlLogic id="cluster_1045830409_1045830414_1045830416_1045830433_#13more" programID="0" >
        <phase duration="16" maxDur="50" minDur="5" state="rrrrrrrrrrrrrrrrGGGGGgggrrrrrrrrrrrrrrrrrrrrrrrrGGGgggggrrrrrrrrrrrrrrrrrrrrrrrrrrr"/>
        <phase duration="3" state="rrrrrrrrrrrrrrrryyyyyyyyrrrrrrrrrrrrrrrrrrrrrrrryyyyyyyyrrrrrrrrrrrrrrrrrrrrrrrrrrr"/>
        <phase duration="16" maxDur="50" minDur="5" state="rrrrrrrrgGggggggrrrrrrrrGgggggggrrrrrrrrrrrrrrrrrrrrrrrrrrrrrrrrGggGggGgrrrrrrrrrrr"/>
        <phase duration="3" state="rrrrrrrryyyyyyyyrrrrrrrryyyyyyyyrrrrrrrrrrrrrrrrrrrrrrrrrrrrrrrryyyyyyyyrrrrrrrrrrr"/>
        <phase duration="2" state="rrrrrrrrrrrrrrrrrrrrrrrrrrrrrrrrrrrrrrrrrrrrrrrrrrrrrrrrrrrrrrrrrrrrrrrrrrrrrrrrrrr"/>
        <phase duration="16" maxDur="50" minDur="5" state="GGggggggrrrrrrrrrrrrrrrrrrrrrrrrrrrrrrrrGGGGggggrrrrrrrrGgggggggrrrrrrrrrrrrrrrrrrr"/>
        <phase duration="3" state="yyyyyyyyrrrrrrrrrrrrrrrrrrrrrrrrrrrrrrrryyyyyyyyrrrrrrrryyyyyyyyrrrrrrrrrrrrrrrrrrr"/>
        <phase duration="2" state="rrrrrrrrrrrrrrrrrrrrrrrrrrrrrrrrrrrrrrrrrrrrrrrrrrrrrrrrrrrrrrrrrrrrrrrrrrrrrrrrrrr"/>
        <phase duration="11" maxDur="50" minDur="5" state="rrrrrrrrrrrrrrrrrrrrrrrrrrrrrrrrGGgGGggGrrrrrrrrrrrrrrrrrrrrrrrrrrrrrrrrrGGGrrrrrrr"/>
        <phase duration="5" state="rrrrrrrrrrrrrrrrrrrrrrrrrrrrrrrrGGgGGggGrrrrrrrrrrrrrrrrrrrrrrrrrrrrrrrrrrrrrrrrrrr"/>
        <phase duration="3" state="rrrrrrrrrrrrrrrrrrrrrrrrrrrrrrrryyyyyyyyrrrrrrrrrrrrrrrrrrrrrrrrrrrrrrrrrrrrrrrrrrr"/>
        <phase duration="5" state="rrrrrrrrrrrrrrrrrrrrrrrrrrrrrrrrrrrrrrrrrrrrrrrrrrrrrrrrrrrrrrrrrrrrrrrrGGGGrrrrrrr"/>
        <phase duration="5" state="rrrrrrrrrrrrrrrrrrrrrrrrrrrrrrrrrrrrrrrrrrrrrrrrrrrrrrrrrrrrrrrrrrrrrrrrrrrrrrrrrrr"/>
    </tlLogic>
    <tlLogic id="cluster_1679832077_1679832079_1680006268_1680006280_#28more" programID="0" >
        <phase duration="17" maxDur="50" minDur="5" state="GgrrrgGrrrrrrrgGrrrrggrrrrr"/>
        <phase duration="3" state="yyrrryyrrrrrrryyrrrryyrrrrr"/>
        <phase duration="3" state="rrrrrrrrrrrrrrrrrrrrrrrrrrr"/>
        <phase duration="19" maxDur="50" minDur="5" state="rrrrrrGGggggggrrrrrrrrGGGgg"/>
        <phase duration="3" state="rrrrrryyggggggrrrrrrrryyygg"/>
        <phase duration="6" maxDur="50" minDur="5" state="rrrrrrrrgggGggrrrrrrrrrrrgg"/>
        <phase duration="3" state="rrrrrrrryyyyyyrrrrrrrrrrryy"/>
        <phase duration="2" state="rrrrrrrrrrrrrrrrrrrrrrrrrrr"/>
        <phase duration="19" maxDur="50" minDur="5" state="rrgGggrrrrrrrrrrgGggrrrrrrr"/>
        <phase duration="3" state="rryyggrrrrrrrrrryyggrrrrrrr"/>
        <phase duration="6" maxDur="50" minDur="5" state="rrrrGGrrrrrrrrrrrrGGrrrrrrr"/>
        <phase duration="3" state="rrrryyrrrrrrrrrrrryyrrrrrrr"/>
        <phase duration="3" state="rrrrrrrrrrrrrrrrrrrrrrrrrrr"/>
    </tlLogic>
    <tlLogic id="cluster_2138722653_371689510_5330131511" programID="0" >
        <phase duration="42" maxDur="50" minDur="5" state="rrrrGGGGGr"/>
        <phase duration="3" state="rrrryyyyyr"/>
        <phase duration="37" maxDur="50" minDur="5" state="ggggrrrrrG"/>
        <phase duration="5" state="ggggrrrrrr"/>
        <phase duration="3" state="yyyyrrrrrr"/>
    </tlLogic>
    <tlLogic id="cluster_3170506016_3170506018_3170506019_3170510440_#5more" programID="0" >
        <phase duration="15" maxDur="50" minDur="5" state="rrrrrrrrrrrrrrgggggggGGgGgggrrrrrrrrrrrrrrGGGggggGrrrrrrrrrrrr"/>
        <phase duration="5" state="rrrrrrrrrrrrrrgggggggGGgGgggrrrrrrrrrrrrrrGGGggggrrrrrrrrrrrrr"/>
        <phase duration="3" state="rrrrrrrrrrrrrrgggggggyyyygggrrrrrrrrrrrrrryyygyggrrrrrrrrrrrrr"/>
        <phase duration="6" maxDur="50" minDur="5" state="rrrrrrrrrrrrrrgggggggrrrrGGgrrrrrrrrrrrrrrrrrGrGgrrrrrrrrrrrrr"/>
        <phase duration="3" state="rrrrrrrrrrrrrryyyyyyyrrrryyyrrrrrrrrrrrrrrrrryryyrrrrrrrrrrrrr"/>
        <phase duration="21" maxDur="50" minDur="5" state="GGgggggGggggggrrrrrrrrrrrrrrrrrrrrrGGGggggrrrrrrrrrrrrrrrrrrrr"/>
        <phase duration="3" state="yyyyyyyyyyyyyyrrrrrrrrrrrrrrrrrrrrryyyyyyyrrrrrrrrrrrrrrrrrrrr"/>
        <phase duration="16" maxDur="50" minDur="5" state="rrrrrrrrrrrrrrrrrrrrrrrrrrrrGGGGGgGrrrrrrrrrrrrrrrrrGrrrrrrrrr"/>
        <phase duration="5" state="rrrrrrrrrrrrrrrrrrrrrrrrrrrrGGGGGgGrrrrrrrrrrrrrrrrrrrrrrrrrrr"/>
        <phase duration="3" state="rrrrrrrrrrrrrrrrrrrrrrrrrrrryyyyyyyrrrrrrrrrrrrrrrrrrrrrrrrrrr"/>
        <phase duration="5" state="rrrrrrrrrrrrrrrrrrrrrrrrrrrrrrrrrrrrrrrrrrrrrrrrrGGGGrrrrrrrrr"/>
        <phase duration="5" state="rrrrrrrrrrrrrrrrrrrrrrrrrrrrrrrrrrrrrrrrrrrrrrrrrrrrrrrrrrrrrr"/>
    </tlLogic>
    <tlLogic id="joinedS_1776057561_3816135292_3816135296" programID="0" >
        <phase duration="37" maxDur="50" minDur="5" state="gGgGggrrGGrrGrrrrrrrrrrrr"/>
        <phase duration="5" state="gGgGggrrGGrrrrrrrrrrrrrrr"/>
        <phase duration="3" state="yyyyyyrryyrrrrrrrrrrrrrrr"/>
        <phase duration="37" maxDur="50" minDur="5" state="rrrrrrggrrGGrGrrrrrrrrrrr"/>
        <phase duration="5" state="rrrrrrggrrrrrrrrrrrrrrrrr"/>
        <phase duration="3" state="rrrrrryyrrrrrrrrrrrrrrrrr"/>
    </tlLogic>
    <!-- Created Elements -->
    <connection from="-38820706#0" fromLane="1" to="995028536" toLane="0" linkIndex="19" tl="cluster_1015904822_1015930056_1024673957_1615790462_#12more"/>
    <connection from="-38820706#0" fromLane="1" to="35392078" toLane="0" linkIndex="20" tl="cluster_1015904822_1015930056_1024673957_1615790462_#12more"/>
    <connection from="-38820706#0" fromLane="1" to="-42736079" toLane="0" linkIndex="21" tl="cluster_1015904822_1015930056_1024673957_1615790462_#12more"/>
    <connection from="-38820706#0" fromLane="1" to="89956141#1" toLane="1" linkIndex="22" tl="cluster_1015904822_1015930056_1024673957_1615790462_#12more"/>
    <connection from="-38820706#0" fromLane="1" to="-45357161#0" toLane="1" linkIndex="23" tl="cluster_1015904822_1015930056_1024673957_1615790462_#12more"/>
    <connection from="-38820706#0" fromLane="1" to="3960333#1" toLane="0" linkIndex="24" tl="cluster_1015904822_1015930056_1024673957_1615790462_#12more"/>
    <connection from="-38820706#0" fromLane="1" to="38820706#0" toLane="1" linkIndex="25" tl="cluster_1015904822_1015930056_1024673957_1615790462_#12more"/>
    <connection from="-421746944" fromLane="1" to="-421746940" toLane="1" linkIndex="3" tl="joinedS_1776057561_3816135292_3816135296"/>
    <connection from="-421746944" fromLane="1" to="-273936882#4" toLane="1" linkIndex="4" tl="joinedS_1776057561_3816135292_3816135296"/>
    <connection from="-421746944" fromLane="1" to="409064420" toLane="1" linkIndex="5" tl="joinedS_1776057561_3816135292_3816135296"/>
    <connection from="-89956141#1" fromLane="1" to="-45357161#0" toLane="1" linkIndex="50" tl="cluster_1015904822_1015930056_1024673957_1615790462_#12more"/>
    <connection from="-89956141#1" fromLane="1" to="3960333#1" toLane="0" linkIndex="51" tl="cluster_1015904822_1015930056_1024673957_1615790462_#12more"/>
    <connection from="-89956141#1" fromLane="1" to="38820706#0" toLane="1" linkIndex="52" tl="cluster_1015904822_1015930056_1024673957_1615790462_#12more"/>
    <connection from="-89956141#1" fromLane="1" to="995028536" toLane="0" linkIndex="53" tl="cluster_1015904822_1015930056_1024673957_1615790462_#12more"/>
    <connection from="-89956141#1" fromLane="1" to="35392078" toLane="0" linkIndex="54" tl="cluster_1015904822_1015930056_1024673957_1615790462_#12more"/>
    <connection from="-89956141#1" fromLane="1" to="-42736079" toLane="0" linkIndex="55" tl="cluster_1015904822_1015930056_1024673957_1615790462_#12more"/>
    <connection from="-89956141#1" fromLane="1" to="89956141#1" toLane="1" linkIndex="56" tl="cluster_1015904822_1015930056_1024673957_1615790462_#12more"/>
    <connection from="-90209360#4" fromLane="1" to="-127980965#0" toLane="1" linkIndex="56" tl="cluster_1045830409_1045830414_1045830416_1045830433_#13more"/>
    <connection from="-90209360#4" fromLane="1" to="87321467#1" toLane="0" linkIndex="57" tl="cluster_1045830409_1045830414_1045830416_1045830433_#13more"/>
    <connection from="-90209360#4" fromLane="1" to="1144337177" toLane="1" linkIndex="58" tl="cluster_1045830409_1045830414_1045830416_1045830433_#13more"/>
    <connection from="-90209360#4" fromLane="1" to="905006825#1" toLane="0" linkIndex="59" tl="cluster_1045830409_1045830414_1045830416_1045830433_#13more"/>
    <connection from="-90209360#4" fromLane="1" to="514543899" toLane="1" linkIndex="60" tl="cluster_1045830409_1045830414_1045830416_1045830433_#13more"/>
    <connection from="-90209360#4" fromLane="1" to="-90209360#0" toLane="1" linkIndex="61" tl="cluster_1045830409_1045830414_1045830416_1045830433_#13more"/>
    <connection from="-90209360#4" fromLane="1" to="1034858637#1" toLane="0" linkIndex="62" tl="cluster_1045830409_1045830414_1045830416_1045830433_#13more"/>
    <connection from="-90209360#4" fromLane="1" to="90209360#4" toLane="1" linkIndex="63" tl="cluster_1045830409_1045830414_1045830416_1045830433_#13more"/>
    <connection from="127980961#3" fromLane="1" to="1144337177" toLane="1" linkIndex="32" tl="cluster_1045830409_1045830414_1045830416_1045830433_#13more"/>
    <connection from="127980961#3" fromLane="1" to="905006825#1" toLane="0" linkIndex="33" tl="cluster_1045830409_1045830414_1045830416_1045830433_#13more"/>
    <connection from="127980961#3" fromLane="1" to="514543899" toLane="1" linkIndex="34" tl="cluster_1045830409_1045830414_1045830416_1045830433_#13more"/>
    <connection from="127980961#3" fromLane="1" to="-90209360#0" toLane="1" linkIndex="35" tl="cluster_1045830409_1045830414_1045830416_1045830433_#13more"/>
    <connection from="127980961#3" fromLane="1" to="1034858637#1" toLane="0" linkIndex="36" tl="cluster_1045830409_1045830414_1045830416_1045830433_#13more"/>
    <connection from="127980961#3" fromLane="1" to="90209360#4" toLane="1" linkIndex="37" tl="cluster_1045830409_1045830414_1045830416_1045830433_#13more"/>
    <connection from="127980961#3" fromLane="1" to="-127980965#0" toLane="1" linkIndex="38" tl="cluster_1045830409_1045830414_1045830416_1045830433_#13more"/>
    <connection from="127980961#3" fromLane="1" to="87321467#1" toLane="0" linkIndex="39" tl="cluster_1045830409_1045830414_1045830416_1045830433_#13more"/>
    <connection from="127980965#0" fromLane="1" to="87321467#1" toLane="0" linkIndex="48" tl="cluster_1045830409_1045830414_1045830416_1045830433_#13more"/>
    <connection from="127980965#0" fromLane="1" to="1144337177" toLane="1" linkIndex="49" tl="cluster_1045830409_1045830414_1045830416_1045830433_#13more"/>
    <connection from="127980965#0" fromLane="1" to="905006825#1" toLane="0" linkIndex="50" tl="cluster_1045830409_1045830414_1045830416_1045830433_#13more"/>
    <connection from="127980965#0" fromLane="1" to="514543899" toLane="1" linkIndex="51" tl="cluster_1045830409_1045830414_1045830416_1045830433_#13more"/>
    <connection from="127980965#0" fromLane="1" to="-90209360#0" toLane="1" linkIndex="52" tl="cluster_1045830409_1045830414_1045830416_1045830433_#13more"/>
    <connection from="127980965#0" fromLane="1" to="1034858637#1" toLane="0" linkIndex="53" tl="cluster_1045830409_1045830414_1045830416_1045830433_#13more"/>
    <connection from="127980965#0" fromLane="1" to="90209360#4" toLane="1" linkIndex="54" tl="cluster_1045830409_1045830414_1045830416_1045830433_#13more"/>
    <connection from="127980965#0" fromLane="1" to="-127980965#0" toLane="1" linkIndex="55" tl="cluster_1045830409_1045830414_1045830416_1045830433_#13more"/>
    <connection from="145321494#2" fromLane="1" to="-42736079" toLane="0" linkIndex="0" tl="cluster_1015904822_1015930056_1024673957_1615790462_#12more"/>
    <connection from="145321494#2" fromLane="1" to="89956141#1" toLane="1" linkIndex="1" tl="cluster_1015904822_1015930056_1024673957_1615790462_#12more"/>
    <connection from="145321494#2" fromLane="1" to="-45357161#0" toLane="1" linkIndex="2" tl="cluster_1015904822_1015930056_1024673957_1615790462_#12more"/>
    <connection from="145321494#2" fromLane="1" to="3960333#1" toLane="0" linkIndex="3" tl="cluster_1015904822_1015930056_1024673957_1615790462_#12more"/>
    <connection from="145321494#2" fromLane="1" to="38820706#0" toLane="1" linkIndex="4" tl="cluster_1015904822_1015930056_1024673957_1615790462_#12more"/>
    <connection from="145321494#2" fromLane="1" to="995028536" toLane="0" linkIndex="5" tl="cluster_1015904822_1015930056_1024673957_1615790462_#12more"/>
    <connection from="145321494#2" fromLane="1" to="35392078" toLane="1" linkIndex="6" tl="cluster_1015904822_1015930056_1024673957_1615790462_#12more"/>
    <connection from="152549183" fromLane="0" to="89956141#1" toLane="1" linkIndex="57" tl="cluster_1015904822_1015930056_1024673957_1615790462_#12more"/>
    <connection from="152549183" fromLane="0" to="-45357161#0" toLane="1" linkIndex="58" tl="cluster_1015904822_1015930056_1024673957_1615790462_#12more"/>
    <connection from="152549183" fromLane="0" to="3960333#1" toLane="0" linkIndex="59" tl="cluster_1015904822_1015930056_1024673957_1615790462_#12more"/>
    <connection from="152549183" fromLane="0" to="38820706#0" toLane="1" linkIndex="60" tl="cluster_1015904822_1015930056_1024673957_1615790462_#12more"/>
    <connection from="152549183" fromLane="0" to="186282747#1" toLane="0" linkIndex="61" tl="cluster_1015904822_1015930056_1024673957_1615790462_#12more"/>
    <connection from="152549183" fromLane="1" to="186282747#1" toLane="1" linkIndex="62" tl="cluster_1015904822_1015930056_1024673957_1615790462_#12more"/>
    <connection from="152549183" fromLane="2" to="995028536" toLane="0" linkIndex="63" tl="cluster_1015904822_1015930056_1024673957_1615790462_#12more"/>
    <connection from="152549183" fromLane="2" to="35392078" toLane="1" linkIndex="64" tl="cluster_1015904822_1015930056_1024673957_1615790462_#12more"/>
    <connection from="152549183" fromLane="2" to="-42736079" toLane="0" linkIndex="65" tl="cluster_1015904822_1015930056_1024673957_1615790462_#12more"/>
    <connection from="152549183" fromLane="2" to="325790768" toLane="1" linkIndex="66" tl="cluster_1015904822_1015930056_1024673957_1615790462_#12more"/>
    <connection from="152731732" fromLane="0" to="38820706#0" toLane="1" linkIndex="33" tl="cluster_1015904822_1015930056_1024673957_1615790462_#12more"/>
    <connection from="152731732" fromLane="0" to="186282747#1" toLane="0" linkIndex="34" tl="cluster_1015904822_1015930056_1024673957_1615790462_#12more"/>
    <connection from="152731732" fromLane="0" to="995028536" toLane="0" linkIndex="35" tl="cluster_1015904822_1015930056_1024673957_1615790462_#12more"/>
    <connection from="152731732" fromLane="0" to="89956141#1" toLane="1" linkIndex="36" tl="cluster_1015904822_1015930056_1024673957_1615790462_#12more"/>
    <connection from="152731732" fromLane="0" to="-45357161#0" toLane="1" linkIndex="37" tl="cluster_1015904822_1015930056_1024673957_1615790462_#12more"/>
    <connection from="152731732" fromLane="1" to="35392078" toLane="0" linkIndex="38" tl="cluster_1015904822_1015930056_1024673957_1615790462_#12more"/>
    <connection from="152731732" fromLane="2" to="35392078" toLane="1" linkIndex="39" tl="cluster_1015904822_1015930056_1024673957_1615790462_#12more"/>
    <connection from="152731732" fromLane="3" to="-42736079" toLane="0" linkIndex="40" tl="cluster_1015904822_1015930056_1024673957_1615790462_#12more"/>