<?xml version="1.0" encoding="UTF-8"?>

<!-- generated on 2023-06-01 14:59:39.017197 by netdiff.py v1_17_0+0608-a6a27b83562
<configuration>
    <dest value="/home/vm-sts/repos/crownet/crownet/simulations/multi_enb/sumo/munich/muc_005/muc.net.xml.gz"/>
    <outprefix value="2023-06-01_16-58_diff"/>
    <patch-on-import value="True"/>
    <remove-plain value="True"/>
    <source value="/home/vm-sts/repos/crownet/crownet/simulations/multi_enb/sumo/munich/muc_005/muc_base.net.xml.gz"/>
</configuration>
-->

<connections version="1.16" xmlns:xsi="http://www.w3.org/2001/XMLSchema-instance" xsi:noNamespaceSchemaLocation="http://sumo.dlr.de/xsd/connections_file.xsd">
    <!-- Deleted Elements -->
    <delete from="-1046937344#0" fromLane="1" to="1046937344#0" toLane="1"/>
    <delete from="-1046937344#1" fromLane="1" to="-1046937344#0" toLane="1"/>
    <delete from="-1046937344#1" fromLane="1" to="1046938309" toLane="1"/>
    <delete from="-1046937344#1" fromLane="1" to="1046937344#1" toLane="1"/>
    <delete from="-1046937344#2" fromLane="1" to="-26128316#0" toLane="1"/>
    <delete from="-1046937344#2" fromLane="1" to="-1046937344#1" toLane="1"/>
    <delete from="-1046937344#2" fromLane="1" to="26128316#1" toLane="1"/>
    <delete from="-1046937344#2" fromLane="1" to="1046937344#2" toLane="1"/>
    <delete from="-1046938309" fromLane="1" to="1046937344#1" toLane="1"/>
    <delete from="-1046938309" fromLane="1" to="-1046937344#0" toLane="1"/>
    <delete from="-1054397156#2" fromLane="1" to="-1054397156#1" toLane="1"/>
    <delete from="-1168569266#0" fromLane="0" to="376401312#0" toLane="1"/>
    <delete from="-1168569266#0" fromLane="0" to="290407136#24" toLane="0"/>
    <delete from="-1168569266#0" fromLane="0" to="34114237#0" toLane="0"/>
    <delete from="-13855774#0" fromLane="1" to="4855783#1" toLane="1"/>
    <delete from="-13855774#0" fromLane="1" to="24899426" toLane="1"/>
    <delete from="-13855774#0" fromLane="1" to="-4855783#0" toLane="1"/>
    <delete from="-13855774#1" fromLane="1" to="-13855774#0" toLane="1"/>
    <delete from="-147776158#1" fromLane="1" to="4799043#2" toLane="0"/>
    <delete from="-147776158#1" fromLane="1" to="-6134617#2" toLane="1"/>
    <delete from="-147776158#1" fromLane="1" to="-4799043#1" toLane="0"/>
    <delete from="-147776158#1" fromLane="1" to="147776158#1" toLane="1"/>
    <delete from="-149788627#0" fromLane="1" to="-122891955#1" toLane="1"/>
    <delete from="-149788627#1" fromLane="1" to="-149788627#0" toLane="1"/>
    <delete from="-149788627#1" fromLane="1" to="-4799047#3" toLane="1"/>
    <delete from="-149788627#1" fromLane="1" to="215189597#4" toLane="1"/>
    <delete from="-149788627#1" fromLane="1" to="149788627#1" toLane="1"/>
    <delete from="-149788627#4" fromLane="1" to="-149788627#1" toLane="1"/>
    <delete from="-154782362" fromLane="1" to="-483091453" toLane="1"/>
    <delete from="-159686842" fromLane="1" to="-1054397156#2" toLane="1"/>
    <delete from="-159686842" fromLane="1" to="89360841" toLane="1"/>
    <delete from="-159686842" fromLane="1" to="159686842" toLane="1"/>
    <delete from="-164102004#1" fromLane="1" to="-149788627#1" toLane="1"/>
    <delete from="-181576131#0" fromLane="1" to="26037327#1" toLane="1"/>
    <delete from="-181576131#0" fromLane="1" to="-26037327#0" toLane="1"/>
    <delete from="-181576131#1" fromLane="1" to="-181576131#0" toLane="1"/>
    <delete from="-181576131#1" fromLane="1" to="181576131#1" toLane="1"/>
    <delete from="-181576131#2" fromLane="1" to="-181576131#1" toLane="1"/>
    <delete from="-222870381#6" fromLane="1" to="-222870381#4" toLane="1"/>
    <delete from="-222870381#6" fromLane="1" to="-1075800087" toLane="1"/>
    <delete from="-24327144#1" fromLane="1" to="-24327144#0" toLane="1"/>
    <delete from="-24327144#1" fromLane="1" to="-99663062" toLane="1"/>
    <delete from="-24327144#1" fromLane="1" to="24327144#1" toLane="1"/>
    <delete from="-24327144#2" fromLane="1" to="-24327144#1" toLane="1"/>
    <delete from="-24327144#2" fromLane="1" to="-99663057#3" toLane="1"/>
    <delete from="-24327144#2" fromLane="1" to="24327144#2" toLane="1"/>
    <delete from="-24899426" fromLane="1" to="-4855783#0" toLane="1"/>
    <delete from="-24899426" fromLane="1" to="4855783#1" toLane="1"/>
    <delete from="-24899426" fromLane="1" to="24899426" toLane="1"/>
    <delete from="-26037327#0" fromLane="1" to="181576131#1" toLane="1"/>
    <delete from="-26037327#0" fromLane="1" to="-181576131#0" toLane="1"/>
    <delete from="-26037327#1" fromLane="1" to="-26037327#0" toLane="1"/>
    <delete from="-26037327#1" fromLane="1" to="26037327#1" toLane="1"/>
    <delete from="-26037327#2" fromLane="1" to="-26037327#1" toLane="1"/>
    <delete from="-26128303" fromLane="1" to="26128303" toLane="1"/>
    <delete from="-26128316#0" fromLane="1" to="26128316#0" toLane="1"/>
    <delete from="-26128316#1" fromLane="1" to="1046937344#2" toLane="1"/>
    <delete from="-26128316#1" fromLane="1" to="-26128316#0" toLane="1"/>
    <delete from="-26128316#1" fromLane="1" to="-1046937344#1" toLane="1"/>
    <delete from="-26128316#1" fromLane="1" to="26128316#1" toLane="1"/>
    <delete from="-26129910#0" fromLane="1" to="26129910#0" toLane="1"/>
    <delete from="-26129910#1" fromLane="1" to="-26129910#0" toLane="1"/>
    <delete from="-26129910#1" fromLane="1" to="-518388589" toLane="1"/>
    <delete from="-26129910#1" fromLane="1" to="26129910#1" toLane="1"/>
    <delete from="-26333928" fromLane="1" to="39862936#1" toLane="1"/>
    <delete from="-26333928" fromLane="1" to="-39862936#0" toLane="1"/>
    <delete from="-26333928" fromLane="1" to="26333928" toLane="1"/>
    <delete from="-26960950" fromLane="1" to="509963271" toLane="1"/>
    <delete from="-26960953" fromLane="1" to="26960953" toLane="1"/>
    <delete from="-273936882#5" fromLane="1" to="-421746940" toLane="1"/>
    <delete from="-273936882#5" fromLane="1" to="-273936882#4" toLane="1"/>
    <delete from="-273936882#5" fromLane="1" to="409064420" toLane="1"/>
    <delete from="-273936882#7" fromLane="1" to="-273936882#5" toLane="1"/>
    <delete from="-273936882#7" fromLane="1" to="475919640#0" toLane="1"/>
    <delete from="-273936882#7" fromLane="1" to="273936882#7" toLane="1"/>
    <delete from="-297003234#0" fromLane="1" to="-26333928" toLane="1"/>
    <delete from="-297003234#0" fromLane="1" to="-34240117" toLane="1"/>
    <delete from="-297003234#0" fromLane="1" to="-80178132" toLane="1"/>
    <delete from="-297003234#0" fromLane="1" to="297003234#0" toLane="1"/>
    <delete from="-297003234#1" fromLane="1" to="-297003234#0" toLane="1"/>
    <delete from="-30243892" fromLane="1" to="-4062041#0" toLane="1"/>
    <delete from="-32461160" fromLane="1" to="-26128303" toLane="1"/>
    <delete from="-32461160" fromLane="1" to="51324781#0" toLane="1"/>
    <delete from="-32461160" fromLane="1" to="32461160" toLane="1"/>
    <delete from="-34240117" fromLane="1" to="34240117" toLane="1"/>
    <delete from="-38926856#2" fromLane="1" to="4073969" toLane="0"/>
    <delete from="-38926856#2" fromLane="1" to="-222870381#6" toLane="1"/>
    <delete from="-38926856#2" fromLane="1" to="105847792#0" toLane="1"/>
    <delete from="-38926856#2" fromLane="1" to="4073959#1" toLane="1"/>
    <delete from="-38926856#2" fromLane="1" to="38926856#1" toLane="1"/>
    <delete from="-38926856#3" fromLane="1" to="-38926856#2" toLane="1"/>
    <delete from="-38926856#4" fromLane="1" to="-38926856#3" toLane="1"/>
    <delete from="-38926856#4" fromLane="1" to="4062041#0" toLane="1"/>
    <delete from="-38926856#4" fromLane="1" to="38926856#4" toLane="1"/>
    <delete from="-38926859#0" fromLane="1" to="38926859#0" toLane="1"/>
    <delete from="-38926859#4" fromLane="1" to="-38926859#0" toLane="1"/>
    <delete from="-38926859#5" fromLane="1" to="-38926859#4" toLane="1"/>
    <delete from="-38926859#6" fromLane="1" to="-38926859#5" toLane="1"/>
    <delete from="-392069504" fromLane="1" to="-1168569266#0" toLane="0"/>
    <delete from="-39321854#0" fromLane="2" to="39321854#0" toLane="2"/>
    <delete from="-39321854#1" fromLane="0" to="47229154#7" toLane="1"/>
    <delete from="-39321854#1" fromLane="0" to="-39321854#0" toLane="0"/>
    <delete from="-39321854#1" fromLane="1" to="-39321854#0" toLane="1"/>
    <delete from="-39321854#1" fromLane="2" to="-39321854#0" toLane="2"/>
    <delete from="-39862936#1" fromLane="1" to="26333928" toLane="1"/>
    <delete from="-4003050#0" fromLane="1" to="42394799#5" toLane="1"/>
    <delete from="-4003050#0" fromLane="1" to="4003050#0" toLane="1"/>
    <delete from="-4003050#1" fromLane="1" to="-4003050#0" toLane="1"/>
    <delete from="-4062041#0" fromLane="1" to="38926856#4" toLane="1"/>
    <delete from="-4062041#0" fromLane="1" to="-38926856#3" toLane="1"/>
    <delete from="-4062041#0" fromLane="1" to="4062041#0" toLane="1"/>
    <delete from="-4062041#1" fromLane="1" to="-4062041#0" toLane="1"/>
    <delete from="-421746944" fromLane="1" to="273936882#5" toLane="1"/>
    <delete from="-4432705#0" fromLane="1" to="192123865" toLane="1"/>
    <delete from="-4432705#0" fromLane="1" to="-681699053" toLane="1"/>
    <delete from="-4432705#0" fromLane="1" to="154782359#1" toLane="1"/>
    <delete from="-4432705#0" fromLane="1" to="4432705#0" toLane="1"/>
    <delete from="-451790951#1" fromLane="1" to="127875849#7" toLane="0"/>
    <delete from="-451790951#1" fromLane="1" to="451790951#0" toLane="1"/>
    <delete from="-451790951#3" fromLane="1" to="-451790951#1" toLane="1"/>
    <delete from="-451790951#4" fromLane="1" to="6134617#2" toLane="1"/>
    <delete from="-459027201#0" fromLane="1" to="-273936882#7" toLane="1"/>
    <delete from="-459027201#1" fromLane="1" to="-459027201#0" toLane="1"/>
    <delete from="-459027201#1" fromLane="1" to="459027201#1" toLane="1"/>
    <delete from="-47635836#2" fromLane="1" to="47635837" toLane="1"/>
    <delete from="-47635836#2" fromLane="1" to="-47635836#1" toLane="1"/>
    <delete from="-47635836#2" fromLane="1" to="47635836#2" toLane="1"/>
    <delete from="-47635837" fromLane="1" to="47635836#2" toLane="1"/>
    <delete from="-47635838" fromLane="1" to="47635852#1" toLane="1"/>
    <delete from="-47635854#0" fromLane="1" to="47635854#0" toLane="1"/>
    <delete from="-47635854#1" fromLane="1" to="47635836#3" toLane="1"/>
    <delete from="-47635854#1" fromLane="1" to="-47635854#0" toLane="1"/>
    <delete from="-47635854#1" fromLane="1" to="-47635836#2" toLane="1"/>
    <delete from="-47635854#1" fromLane="1" to="47635854#1" toLane="1"/>
    <delete from="-4799043#1" fromLane="0" to="4799043#0" toLane="0"/>
    <delete from="-4799043#2" fromLane="0" to="-6134617#2" toLane="1"/>
    <delete from="-4799043#2" fromLane="0" to="-4799043#1" toLane="0"/>
    <delete from="-4799043#2" fromLane="0" to="147776158#1" toLane="1"/>
    <delete from="-4799043#2" fromLane="0" to="4799043#2" toLane="0"/>
    <delete from="-4799047#3" fromLane="1" to="4799047#0" toLane="1"/>
    <delete from="-4799050#2" fromLane="1" to="-147776158#1" toLane="1"/>
    <delete from="-4817638#1" fromLane="1" to="-451790951#1" toLane="1"/>
    <delete from="-4817638#2" fromLane="1" to="121899543#2" toLane="1"/>
    <delete from="-483091453" fromLane="1" to="-33487034#7" toLane="1"/>
    <delete from="-483091453" fromLane="1" to="681699053" toLane="1"/>
    <delete from="-483091453" fromLane="1" to="483091453" toLane="1"/>
    <delete from="-4855783#0" fromLane="1" to="-110962618" toLane="1"/>
    <delete from="-4855783#0" fromLane="1" to="4855797#0" toLane="1"/>
    <delete from="-4855783#0" fromLane="1" to="13855774#1" toLane="1"/>
    <delete from="-4855783#0" fromLane="1" to="-13855774#0" toLane="1"/>
    <delete from="-4855783#1" fromLane="1" to="24899426" toLane="1"/>
    <delete from="-4855783#1" fromLane="1" to="-4855783#0" toLane="1"/>
    <delete from="-4855783#1" fromLane="1" to="4855783#1" toLane="1"/>
    <delete from="-4855783#2" fromLane="1" to="-4855783#1" toLane="1"/>
    <delete from="-4855797#0" fromLane="1" to="-13855774#0" toLane="1"/>
    <delete from="-509963271" fromLane="1" to="-945575633" toLane="1"/>
    <delete from="-509963271" fromLane="1" to="-32707920#0" toLane="1"/>
    <delete from="-509963271" fromLane="1" to="26960950" toLane="1"/>
    <delete from="-509963271" fromLane="1" to="509963271" toLane="1"/>
    <delete from="-51324781#0" fromLane="1" to="32461160" toLane="1"/>
    <delete from="-51324781#0" fromLane="1" to="-26128303" toLane="1"/>
    <delete from="-51324781#0" fromLane="1" to="51324781#0" toLane="1"/>
    <delete from="-51324781#1" fromLane="1" to="-51324781#0" toLane="1"/>
    <delete from="-518388589" fromLane="1" to="518388589" toLane="1"/>
    <delete from="-5214593#4" fromLane="1" to="-5214593#3" toLane="1"/>
    <delete from="-5214593#4" fromLane="1" to="5214593#4" toLane="1"/>
    <delete from="-6134617#2" fromLane="1" to="121899542#7" toLane="1"/>
    <delete from="-6134617#2" fromLane="1" to="451790951#4" toLane="1"/>
    <delete from="-6134617#2" fromLane="1" to="-451790951#3" toLane="1"/>
    <delete from="-6134617#2" fromLane="1" to="6134617#2" toLane="1"/>
    <delete from="-681699053" fromLane="1" to="483091453" toLane="1"/>
    <delete from="-681699053" fromLane="1" to="-33487034#7" toLane="1"/>
    <delete from="-681699053" fromLane="1" to="681699053" toLane="1"/>
    <delete from="-80178132" fromLane="1" to="80178132" toLane="1"/>
    <delete from="-88734517#0" fromLane="1" to="-997952408#0" toLane="1"/>
    <delete from="-88734517#0" fromLane="1" to="997952408#1" toLane="1"/>
    <delete from="-88734517#1" fromLane="1" to="-88734517#0" toLane="1"/>
    <delete from="-88734517#1" fromLane="1" to="88734517#1" toLane="1"/>
    <delete from="-89360841" fromLane="1" to="159686842" toLane="1"/>
    <delete from="-89360841" fromLane="1" to="-1054397156#2" toLane="1"/>
    <delete from="-89360841" fromLane="1" to="89360841" toLane="1"/>
    <delete from="-99663057#0" fromLane="1" to="-297003234#0" toLane="1"/>
    <delete from="-99663057#2" fromLane="1" to="-51324781#0" toLane="1"/>
    <delete from="-99663057#3" fromLane="1" to="-99663057#2" toLane="1"/>
    <delete from="-99663057#3" fromLane="1" to="99663057#3" toLane="1"/>
    <delete from="100945240" fromLane="0" to="467655365#0" toLane="0"/>
    <delete from="100945240" fromLane="1" to="467655365#0" toLane="1"/>
    <delete from="100945240" fromLane="1" to="467655365#0" toLane="2"/>
    <delete from="1020561101#14" fromLane="0" to="1020561101#15" toLane="0"/>
    <delete from="1020561101#15" fromLane="0" to="1020561101#16" toLane="0"/>
    <delete from="1046937344#0" fromLane="1" to="1046938309" toLane="1"/>
    <delete from="1046937344#0" fromLane="1" to="1046937344#1" toLane="1"/>
    <delete from="1046937344#0" fromLane="1" to="-1046937344#0" toLane="1"/>
    <delete from="1046937344#1" fromLane="1" to="26128316#1" toLane="1"/>
    <delete from="1046937344#1" fromLane="1" to="1046937344#2" toLane="1"/>
    <delete from="1046937344#1" fromLane="1" to="-26128316#0" toLane="1"/>
    <delete from="1046937344#1" fromLane="1" to="-1046937344#1" toLane="1"/>
    <delete from="1046937344#2" fromLane="1" to="-1046937344#2" toLane="1"/>
    <delete from="1054397156#2" fromLane="1" to="89360841" toLane="1"/>
    <delete from="1054397156#2" fromLane="1" to="159686842" toLane="1"/>
    <delete from="1054397156#2" fromLane="1" to="-1054397156#2" toLane="1"/>
    <delete from="105847792#0" fromLane="1" to="105847792#1" toLane="1"/>
    <delete from="1098588742" fromLane="2" to="38926854#0" toLane="0"/>
    <delete from="1098588742" fromLane="3" to="38926854#0" toLane="1"/>
    <delete from="110962618" fromLane="1" to="-13855774#0" toLane="1"/>
    <delete from="1144337177" fromLane="1" to="90209355#0" toLane="1"/>
    <delete from="121899542#0" fromLane="1" to="121899542#2" toLane="1"/>
    <delete from="121899542#2" fromLane="1" to="121899542#5" toLane="1"/>
    <delete from="121899542#5" fromLane="1" to="6134617#2" toLane="1"/>
    <delete from="121899543#1" fromLane="1" to="121899543#2" toLane="1"/>
    <delete from="121899543#2" fromLane="1" to="121899543#4" toLane="1"/>
    <delete from="127875849#7" fromLane="0" to="127875849#9" toLane="0"/>
    <delete from="134929400#6" fromLane="0" to="-1168569266#0" toLane="0"/>
    <delete from="139633028#0" fromLane="1" to="139633028#1" toLane="1"/>
    <delete from="139633028#1" fromLane="1" to="38926856#1" toLane="1"/>
    <delete from="139633028#1" fromLane="1" to="-222870381#6" toLane="1"/>
    <delete from="139633028#1" fromLane="1" to="105847792#0" toLane="1"/>
    <delete from="139633028#1" fromLane="1" to="4073959#1" toLane="1"/>
    <delete from="144919883#0" fromLane="1" to="144919883#1" toLane="1"/>
    <delete from="145321494#0" fromLane="1" to="-5214593#4" toLane="1"/>
    <delete from="145321494#0" fromLane="1" to="145321494#1" toLane="1"/>
    <delete from="145321494#1" fromLane="1" to="145321494#2" toLane="1"/>
    <delete from="147776158#1" fromLane="1" to="-4799050#1" toLane="1"/>
    <delete from="147776158#1" fromLane="1" to="4799050#2" toLane="1"/>
    <delete from="147776158#1" fromLane="1" to="-147776158#1" toLane="1"/>
    <delete from="149788627#0" fromLane="1" to="-4799047#3" toLane="1"/>
    <delete from="149788627#0" fromLane="1" to="215189597#4" toLane="1"/>
    <delete from="149788627#0" fromLane="1" to="149788627#1" toLane="1"/>
    <delete from="149788627#0" fromLane="1" to="-149788627#0" toLane="1"/>
    <delete from="149788627#1" fromLane="1" to="149788627#2" toLane="1"/>
    <delete from="149788627#1" fromLane="1" to="164102004#1" toLane="1"/>
    <delete from="149788627#1" fromLane="1" to="244885402#1" toLane="0"/>
    <delete from="149788627#1" fromLane="1" to="-149788627#1" toLane="1"/>
    <delete from="151866165#2" fromLane="0" to="151866165#4" toLane="0"/>
    <delete from="151866165#2" fromLane="1" to="151866165#4" toLane="1"/>
    <delete from="151866165#2" fromLane="2" to="151866165#4" toLane="2"/>
    <delete from="151866165#4" fromLane="0" to="-273936882#5" toLane="1"/>
    <delete from="151866165#4" fromLane="0" to="475919640#0" toLane="0"/>
    <delete from="151866165#4" fromLane="1" to="475919640#0" toLane="1"/>
    <delete from="151866165#4" fromLane="2" to="273936882#7" toLane="1"/>
    <delete from="152731731" fromLane="0" to="325790768" toLane="0"/>
    <delete from="152731731" fromLane="0" to="-45357161#0" toLane="1"/>
    <delete from="152731731" fromLane="0" to="38820706#0" toLane="1"/>
    <delete from="152731731" fromLane="1" to="3960333#1" toLane="0"/>
    <delete from="152731731" fromLane="2" to="3960333#1" toLane="1"/>
    <delete from="152731731" fromLane="3" to="186282747#1" toLane="0"/>
    <delete from="152731731" fromLane="4" to="186282747#1" toLane="1"/>
    <delete from="152731731" fromLane="4" to="995028536" toLane="0"/>
    <delete from="152731731" fromLane="4" to="35392078" toLane="1"/>
    <delete from="154782359#1" fromLane="1" to="93192037#0" toLane="1"/>
    <delete from="154782362" fromLane="1" to="-154782362" toLane="1"/>
    <delete from="156648672#0" fromLane="0" to="451790951#0" toLane="1"/>
    <delete from="159686842" fromLane="1" to="-159686842" toLane="1"/>
    <delete from="161226533" fromLane="1" to="575585170" toLane="1"/>
    <delete from="161766797#0" fromLane="1" to="288283592#3" toLane="1"/>
    <delete from="161766797#0" fromLane="1" to="161766797#1" toLane="1"/>
    <delete from="161766797#1" fromLane="1" to="161773732" toLane="1"/>
    <delete from="167847595#0" fromLane="0" to="167847595#3" toLane="0"/>
    <delete from="167847595#3" fromLane="0" to="167847595#6" toLane="0"/>
    <delete from="167847595#6" fromLane="0" to="167847595#9" toLane="0"/>
    <delete from="181576131#1" fromLane="1" to="181576131#2" toLane="1"/>
    <delete from="181576131#1" fromLane="1" to="-181576131#1" toLane="1"/>
    <delete from="215189597#2" fromLane="1" to="215189597#3" toLane="1"/>
    <delete from="215189597#3" fromLane="1" to="-4799047#3" toLane="1"/>
    <delete from="215189597#3" fromLane="1" to="215189597#4" toLane="1"/>
    <delete from="215189597#3" fromLane="1" to="149788627#1" toLane="1"/>
    <delete from="215189597#3" fromLane="1" to="-149788627#0" toLane="1"/>
    <delete from="222870381#4" fromLane="1" to="222870381#5" toLane="1"/>
    <delete from="222870381#5" fromLane="1" to="105847792#0" toLane="1"/>
    <delete from="222870381#5" fromLane="1" to="4073959#1" toLane="0"/>
    <delete from="222870381#5" fromLane="1" to="38926856#1" toLane="1"/>
    <delete from="222870381#5" fromLane="1" to="4073969" toLane="1"/>
    <delete from="222870381#5" fromLane="1" to="-222870381#6" toLane="1"/>
    <delete from="24327144#0" fromLane="1" to="24327144#1" toLane="1"/>
    <delete from="24327144#1" fromLane="1" to="-99663057#3" toLane="1"/>
    <delete from="24327144#1" fromLane="1" to="24327144#2" toLane="1"/>
    <delete from="24327144#1" fromLane="1" to="-24327144#1" toLane="1"/>
    <delete from="24327144#2" fromLane="1" to="-24327144#2" toLane="1"/>
    <delete from="244885402#0" fromLane="0" to="-149788627#1" toLane="1"/>
    <delete from="24899426" fromLane="1" to="-24899426" toLane="1"/>
    <delete from="26037327#1" fromLane="1" to="26037327#2" toLane="1"/>
    <delete from="26037327#1" fromLane="1" to="-26037327#1" toLane="1"/>
    <delete from="26128303" fromLane="1" to="51324781#0" toLane="1"/>
    <delete from="26128303" fromLane="1" to="32461160" toLane="1"/>
    <delete from="26128303" fromLane="1" to="-26128303" toLane="1"/>
    <delete from="26128316#0" fromLane="1" to="-1046937344#1" toLane="1"/>
    <delete from="26128316#0" fromLane="1" to="26128316#1" toLane="1"/>
    <delete from="26128316#0" fromLane="1" to="1046937344#2" toLane="1"/>
    <delete from="26128316#0" fromLane="1" to="-26128316#0" toLane="1"/>
    <delete from="26128316#1" fromLane="1" to="-26128316#1" toLane="1"/>
    <delete from="26129910#0" fromLane="1" to="-518388589" toLane="1"/>
    <delete from="26129910#0" fromLane="1" to="26129910#1" toLane="1"/>
    <delete from="26129910#0" fromLane="1" to="-26129910#0" toLane="1"/>
    <delete from="26129910#1" fromLane="1" to="-26129910#1" toLane="1"/>
    <delete from="26333928" fromLane="1" to="-34240117" toLane="1"/>
    <delete from="26333928" fromLane="1" to="-80178132" toLane="1"/>
    <delete from="26333928" fromLane="1" to="297003234#0" toLane="1"/>
    <delete from="26333928" fromLane="1" to="-26333928" toLane="1"/>
    <delete from="26960953" fromLane="1" to="-26960953" toLane="1"/>
    <delete from="273936882#4" fromLane="1" to="273936882#5" toLane="1"/>
    <delete from="273936882#5" fromLane="1" to="475919640#0" toLane="0"/>
    <delete from="273936882#5" fromLane="1" to="273936882#7" toLane="1"/>
    <delete from="273936882#5" fromLane="1" to="-273936882#5" toLane="1"/>
    <delete from="273936882#7" fromLane="1" to="459027201#0" toLane="1"/>
    <delete from="28737090#0" fromLane="1" to="28737090#1" toLane="1"/>
    <delete from="28737090#0" fromLane="1" to="-509963271" toLane="1"/>
    <delete from="28737091" fromLane="1" to="28737090#0" toLane="1"/>
    <delete from="287522838#0" fromLane="0" to="34114237#0" toLane="0"/>
    <delete from="288283592#0" fromLane="1" to="288283592#3" toLane="1"/>
    <delete from="288283592#0" fromLane="1" to="161766797#1" toLane="1"/>
    <delete from="288283592#3" fromLane="1" to="288283592#4" toLane="1"/>
    <delete from="297003234#0" fromLane="1" to="99663057#0" toLane="1"/>
    <delete from="297003234#0" fromLane="1" to="297003234#1" toLane="1"/>
    <delete from="297003234#0" fromLane="1" to="-297003234#0" toLane="1"/>
    <delete from="305203771#0" fromLane="0" to="305203771#1" toLane="0"/>
    <delete from="305203771#0" fromLane="1" to="305203771#1" toLane="1"/>
    <delete from="308784465#0" fromLane="0" to="308784465#5" toLane="0"/>
    <delete from="308784465#5" fromLane="0" to="308784465#6" toLane="0"/>
    <delete from="32461160" fromLane="1" to="-32461160" toLane="1"/>
    <delete from="32707920#0" fromLane="1" to="509963271" toLane="1"/>
    <delete from="33487034#7" fromLane="1" to="681699053" toLane="1"/>
    <delete from="33487034#7" fromLane="1" to="483091453" toLane="1"/>
    <delete from="34114237#0" fromLane="0" to="392069504" toLane="1"/>
    <delete from="34114237#0" fromLane="0" to="-1168569266#0" toLane="0"/>
    <delete from="34240117" fromLane="1" to="-80178132" toLane="1"/>
    <delete from="34240117" fromLane="1" to="297003234#0" toLane="1"/>
    <delete from="34240117" fromLane="1" to="-26333928" toLane="1"/>
    <delete from="34240117" fromLane="1" to="-34240117" toLane="1"/>
    <delete from="366792544#13" fromLane="0" to="366792544#14" toLane="0"/>
    <delete from="366792544#14" fromLane="0" to="366792544#17" toLane="0"/>
    <delete from="376401312#0" fromLane="1" to="376401312#3" toLane="1"/>
    <delete from="386619834#1" fromLane="1" to="386619834#2" toLane="1"/>
    <delete from="386619834#2" fromLane="1" to="386619834#3" toLane="1"/>
    <delete from="38926854#0" fromLane="0" to="-222870381#6" toLane="1"/>
    <delete from="38926854#0" fromLane="0" to="4073959#1" toLane="0"/>
    <delete from="38926854#0" fromLane="1" to="4073959#1" toLane="1"/>
    <delete from="38926854#0" fromLane="1" to="38926856#1" toLane="1"/>
    <delete from="38926854#0" fromLane="1" to="4073969" toLane="1"/>
    <delete from="38926856#1" fromLane="1" to="38926856#3" toLane="1"/>
    <delete from="38926856#3" fromLane="1" to="4062041#0" toLane="1"/>
    <delete from="38926856#3" fromLane="1" to="38926856#4" toLane="1"/>
    <delete from="38926856#3" fromLane="1" to="-38926856#3" toLane="1"/>
    <delete from="38926856#4" fromLane="1" to="-38926856#4" toLane="1"/>
    <delete from="38926859#0" fromLane="1" to="38926859#2" toLane="1"/>
    <delete from="38926859#2" fromLane="1" to="38926859#5" toLane="1"/>
    <delete from="38926859#5" fromLane="1" to="-4062041#1" toLane="1"/>
    <delete from="38926859#5" fromLane="1" to="38926859#6" toLane="1"/>
    <delete from="38926859#5" fromLane="1" to="-38926859#5" toLane="1"/>
    <delete from="39321854#0" fromLane="0" to="39321854#1" toLane="0"/>
    <delete from="39321854#0" fromLane="0" to="47229154#7" toLane="1"/>
    <delete from="39321854#0" fromLane="1" to="39321854#1" toLane="1"/>
    <delete from="39321854#0" fromLane="2" to="39321854#1" toLane="2"/>
    <delete from="39321854#1" fromLane="0" to="89840540" toLane="0"/>
    <delete from="39321854#1" fromLane="1" to="89840540" toLane="1"/>
    <delete from="39321854#1" fromLane="2" to="89840540" toLane="2"/>
    <delete from="39862934" fromLane="1" to="26333928" toLane="1"/>
    <delete from="4003050#0" fromLane="1" to="4003050#1" toLane="1"/>
    <delete from="4003050#0" fromLane="1" to="-4003050#0" toLane="1"/>
    <delete from="4062041#0" fromLane="1" to="4062041#1" toLane="1"/>
    <delete from="4062041#0" fromLane="1" to="30243892" toLane="1"/>
    <delete from="4062041#0" fromLane="1" to="-4062041#0" toLane="1"/>
    <delete from="4062041#1" fromLane="1" to="-38926859#5" toLane="1"/>
    <delete from="4073959#1" fromLane="0" to="38926857#1" toLane="0"/>
    <delete from="4073959#1" fromLane="1" to="38926857#1" toLane="1"/>
    <delete from="421746940" fromLane="1" to="273936882#5" toLane="1"/>
    <delete from="42394799#0" fromLane="1" to="4003050#0" toLane="1"/>
    <delete from="42394799#0" fromLane="1" to="42394799#5" toLane="1"/>
    <delete from="42394799#5" fromLane="1" to="311413663" toLane="1"/>
    <delete from="42394799#5" fromLane="1" to="42394799#6" toLane="1"/>
    <delete from="42394799#5" fromLane="1" to="151786524#3" toLane="0"/>
    <delete from="42394799#5" fromLane="1" to="311413661#0" toLane="1"/>
    <delete from="42394799#5" fromLane="1" to="1076186593#1" toLane="1"/>
    <delete from="42394799#5" fromLane="1" to="-81959912#1" toLane="1"/>
    <delete from="42394799#5" fromLane="1" to="-50232911#1" toLane="0"/>
    <delete from="4432705#0" fromLane="1" to="4432705#1" toLane="1"/>
    <delete from="451790951#0" fromLane="1" to="451790951#2" toLane="1"/>
    <delete from="451790951#0" fromLane="1" to="4817638#0" toLane="1"/>
    <delete from="451790951#0" fromLane="1" to="-451790951#1" toLane="1"/>
    <delete from="451790951#2" fromLane="1" to="6134617#2" toLane="1"/>
    <delete from="454530042#0" fromLane="1" to="454530042#2" toLane="1"/>
    <delete from="454530042#2" fromLane="1" to="1144337175#0" toLane="1"/>
    <delete from="455834125" fromLane="1" to="222870381#5" toLane="1"/>
    <delete from="459027201#0" fromLane="1" to="459027201#1" toLane="1"/>
    <delete from="459027201#0" fromLane="1" to="-459027201#0" toLane="1"/>
    <delete from="459027201#1" fromLane="1" to="-8286442#5" toLane="1"/>
    <delete from="459027201#1" fromLane="1" to="475919643" toLane="2"/>
    <delete from="459027201#1" fromLane="1" to="-459027201#1" toLane="1"/>
    <delete from="467655365#0" fromLane="0" to="38926856#1" toLane="1"/>
    <delete from="467655365#0" fromLane="0" to="4073969" toLane="0"/>
    <delete from="467655365#0" fromLane="1" to="4073969" toLane="1"/>
    <delete from="467655365#0" fromLane="2" to="-222870381#6" toLane="1"/>
    <delete from="467655365#0" fromLane="2" to="105847792#0" toLane="1"/>
    <delete from="467655365#0" fromLane="2" to="4073959#1" toLane="1"/>
    <delete from="47229154#5" fromLane="1" to="47229154#6" toLane="1"/>
    <delete from="47229154#6" fromLane="1" to="47229154#7" toLane="1"/>
    <delete from="475919640#0" fromLane="0" to="409064419" toLane="1"/>
    <delete from="475919640#0" fromLane="0" to="475919640#1" toLane="0"/>
    <delete from="475919640#0" fromLane="1" to="475919640#1" toLane="1"/>
    <delete from="475919644#0" fromLane="2" to="-459027201#1" toLane="1"/>
    <delete from="47635836#1" fromLane="1" to="47635836#2" toLane="1"/>
    <delete from="47635836#2" fromLane="1" to="47635854#1" toLane="1"/>