<?xml version="1.0" encoding="UTF-8"?>

<!-- generated on 2023-06-01 14:59:30.886468 by netdiff.py v1_17_0+0608-a6a27b83562
<configuration>
    <dest value="/home/vm-sts/repos/crownet/crownet/simulations/multi_enb/sumo/munich/muc_005/muc.net.xml.gz"/>
    <outprefix value="2023-06-01_16-58_diff"/>
    <patch-on-import value="True"/>
    <remove-plain value="True"/>
    <source value="/home/vm-sts/repos/crownet/crownet/simulations/multi_enb/sumo/munich/muc_005/muc_base.net.xml.gz"/>
</configuration>
-->

<edges version="1.16" xmlns:xsi="http://www.w3.org/2001/XMLSchema-instance" xsi:noNamespaceSchemaLocation="http://sumo.dlr.de/xsd/edgediff_file.xsd">
    <!-- Deleted Elements -->
    <delete id="-1046937344#0"/>
    <delete id="-1046937344#1"/>
    <delete id="-1046937344#2"/>
    <delete id="-1054397156#2"/>
    <delete id="-1168569266#0"/>
    <delete id="-13855774#0"/>
    <delete id="-147776158#1"/>
    <delete id="-149788627#0"/>
    <delete id="-149788627#1"/>
    <delete id="-154782359#1"/>
    <delete id="-154782362"/>
    <delete id="-159686842"/>
    <delete id="-161766797#0"/>
    <delete id="-161766797#1"/>
    <delete id="-181576131#0"/>
    <delete id="-181576131#1"/>
    <delete id="-192123865"/>
    <delete id="-222870381#6"/>
    <delete id="-24327144#1"/>
    <delete id="-24327144#2"/>
    <delete id="-24899426"/>
    <delete id="-26037327#0"/>
    <delete id="-26037327#1"/>
    <delete id="-26128303"/>
    <delete id="-26128316#0"/>
    <delete id="-26128316#1"/>
    <delete id="-26129910#0"/>
    <delete id="-26129910#1"/>
    <delete id="-26333928"/>
    <delete id="-26960953"/>
    <delete id="-273936882#5"/>
    <delete id="-273936882#7"/>
    <delete id="-297003234#0"/>
    <delete id="-32461160"/>
    <delete id="-34240117"/>
    <delete id="-376401312#2"/>
    <delete id="-38926856#2"/>
    <delete id="-38926856#3"/>
    <delete id="-38926856#4"/>
    <delete id="-38926859#0"/>
    <delete id="-38926859#4"/>
    <delete id="-38926859#5"/>
    <delete id="-39321854#0"/>
    <delete id="-39321854#1"/>
    <delete id="-4003050#0"/>
    <delete id="-4062041#0"/>
    <delete id="-4432705#0"/>
    <delete id="-451790951#1"/>
    <delete id="-459027201#0"/>
    <delete id="-459027201#1"/>
    <delete id="-47635836#2"/>
    <delete id="-47635854#0"/>
    <delete id="-47635854#1"/>
    <delete id="-4799043#1"/>
    <delete id="-4799043#2"/>
    <delete id="-4799047#3"/>
    <delete id="-483091453"/>
    <delete id="-4855783#0"/>
    <delete id="-4855783#1"/>
    <delete id="-509963271"/>
    <delete id="-51324781#0"/>
    <delete id="-518388589"/>
    <delete id="-5214593#4"/>
    <delete id="-6134617#2"/>
    <delete id="-681699053"/>
    <delete id="-80178132"/>
    <delete id="-88734517#0"/>
    <delete id="-88734517#1"/>
    <delete id="-89360841"/>
    <delete id="-99663057#3"/>
    <delete id="1001348352#3"/>
    <delete id="100857117#0"/>
    <delete id="100857117#1"/>
    <delete id="1020561101#15"/>
    <delete id="1020561101#16"/>
    <delete id="1046937344#0"/>
    <delete id="1046937344#1"/>
    <delete id="1046937344#2"/>
    <delete id="105209740"/>
    <delete id="1054397156#2"/>
    <delete id="105847792#0"/>
    <delete id="1081686125"/>
    <delete id="118282047#0"/>
    <delete id="118282047#1"/>
    <delete id="121183991"/>
    <delete id="121899542#0"/>
    <delete id="121899542#2"/>
    <delete id="121899543#2"/>
    <delete id="121899543#4"/>
    <delete id="127875849#7"/>
    <delete id="127875849#9"/>
    <delete id="135441315#1"/>
    <delete id="139633028#1"/>
    <delete id="144919883#0"/>
    <delete id="144919883#1"/>
    <delete id="145321494#0"/>
    <delete id="145321494#1"/>
    <delete id="147776158#1"/>
    <delete id="149788627#0"/>
    <delete id="149788627#1"/>
    <delete id="151866165#4"/>
    <delete id="152731731"/>
    <delete id="154782359#1"/>
    <delete id="154782362"/>
    <delete id="156648672#0"/>
    <delete id="15805468#1"/>
    <delete id="159091644"/>
    <delete id="159686837#2"/>
    <delete id="159686837#3"/>
    <delete id="159686842"/>
    <delete id="161226533"/>
    <delete id="161766797#0"/>
    <delete id="161766797#1"/>
    <delete id="167847595#0"/>
    <delete id="167847595#3"/>
    <delete id="167847595#6"/>
    <delete id="177140816#2"/>
    <delete id="177140816#4"/>
    <delete id="17916925#2"/>
    <delete id="17916925#3"/>
    <delete id="181576131#1"/>
    <delete id="192123865"/>
    <delete id="19751454#1"/>
    <delete id="19751454#2"/>
    <delete id="19751532#0"/>
    <delete id="203861269#2"/>
    <delete id="205359364#4"/>
    <delete id="205359364#5"/>
    <delete id="205445891#1"/>
    <delete id="205445891#2"/>
    <delete id="205445891#3"/>
    <delete id="215189597#3"/>
    <delete id="215189597#4"/>
    <delete id="222870381#5"/>
    <delete id="23083529"/>
    <delete id="23440021#0"/>
    <delete id="23440021#1"/>
    <delete id="24327144#1"/>
    <delete id="24327144#2"/>
    <delete id="24899426"/>
    <delete id="26037327#1"/>
    <delete id="26128303"/>
    <delete id="26128316#0"/>
    <delete id="26128316#1"/>
    <delete id="26129899#1"/>
    <delete id="26129899#2"/>
    <delete id="26129910#0"/>
    <delete id="26129910#1"/>
    <delete id="26129912"/>
    <delete id="26129914"/>
    <delete id="26129916#3"/>
    <delete id="26333927"/>
    <delete id="26333928"/>
    <delete id="26798630"/>
    <delete id="26960953"/>
    <delete id="27208569"/>
    <delete id="273936882#5"/>
    <delete id="273936882#7"/>
    <delete id="28737090#0"/>
    <delete id="28737090#1"/>
    <delete id="287522838#0"/>
    <delete id="288283592#0"/>
    <delete id="288283592#3"/>
    <delete id="290407136#24"/>
    <delete id="297003234#0"/>
    <delete id="305203771#0"/>
    <delete id="308784465#0"/>
    <delete id="308784465#5"/>
    <delete id="32461160"/>
    <delete id="34114237#0"/>
    <delete id="34240117"/>
    <delete id="366792544#13"/>
    <delete id="366792544#14"/>
    <delete id="366792544#17"/>
    <delete id="370930509#0"/>
    <delete id="376401312#0"/>
    <delete id="38117777"/>
    <delete id="386619834#2"/>
    <delete id="386619834#3"/>
    <delete id="38926854#0"/>
    <delete id="38926856#1"/>
    <delete id="38926856#3"/>
    <delete id="38926856#4"/>
    <delete id="38926859#0"/>
    <delete id="38926859#2"/>
    <delete id="38926859#5"/>
    <delete id="39107193"/>
    <delete id="39321854#0"/>
    <delete id="39321854#1"/>
    <delete id="4003050#0"/>
    <delete id="4062041#0"/>
    <delete id="4073959#1"/>
    <delete id="4073969"/>
    <delete id="41401904"/>
    <delete id="42394799#0"/>
    <delete id="42394799#5"/>
    <delete id="4432705#0"/>
    <delete id="451790951#0"/>
    <delete id="454530042#0"/>
    <delete id="454530042#2"/>
    <delete id="459027201#0"/>
    <delete id="459027201#1"/>
    <delete id="467655365#0"/>
    <delete id="47229154#6"/>
    <delete id="47229154#7"/>
    <delete id="475919640#0"/>
    <delete id="47635836#2"/>
    <delete id="47635836#3"/>
    <delete id="47635852#1"/>
    <delete id="47635854#0"/>
    <delete id="47635854#1"/>
    <delete id="4799043#0"/>
    <delete id="4799043#2"/>
    <delete id="4799047#0"/>
    <delete id="483091453"/>
    <delete id="4855783#1"/>
    <delete id="509963271"/>
    <delete id="51324781#0"/>
    <delete id="518388589"/>
    <delete id="5214593#4"/>
    <delete id="575585170"/>
    <delete id="590689912"/>
    <delete id="6134617#2"/>
    <delete id="681699053"/>
    <delete id="737214710"/>
    <delete id="80178132"/>
    <delete id="82789049#4"/>
    <delete id="82789071#5"/>
    <delete id="82789071#6"/>
    <delete id="82789076#1"/>
    <delete id="875442034#0"/>
    <delete id="875442034#2"/>
    <delete id="88734517#1"/>
    <delete id="88890339#0"/>
    <delete id="88890339#3"/>
    <delete id="89360841"/>
    <delete id="90209355#0"/>
    <delete id="90209355#1"/>
    <delete id="904680941"/>
    <delete id="905006825#2"/>
    <delete id="921640070#1"/>
    <delete id="961681345#0"/>
    <delete id="962337923#1"/>
    <delete id="990430606#1"/>
    <delete id="99661913#0"/>
    <delete id="99661913#1"/>
    <delete id="99661913#2"/>
    <delete id="99661950"/>
    <delete id="99661951#0"/>
    <delete id="99663051#1"/>
    <delete id="99663057#3"/>
    <delete id="99663060#0"/>
    <delete id="99663060#1"/>
    <delete id="99663068#0"/>
    <delete id="99663068#1"/>
    <delete id="99663068#2"/>
    <delete id="99663068#3"/>
    <delete id="99663068#4"/>
    <delete id="997952408#1"/>
    <!-- Created Elements -->
    <!-- Changed Elements -->
</edges>
