<additional>
    <vType id="pedType1" desiredMaxSpeed="1.38" maxSpeed="2.5" speedFactor="normc(1.00,0.19,0.14,1.43)" vClass="pedestrian"/>
</additional>
