%description:
DcDMap sends data after neighborhood table is updated. 

%file: package.ned 
// 
// empty: no namespace
//

%inifile: omnetpp.ini
[General]
network = crownet.test.omnetpp.lib.TestStationaryWorld
sim-time-limit= 500ms
ned-path = ../../lib
include ../lib/default_testConfig.ini
**.vector-recording = false
**.scalar-recording = false
**.routingRecorder.enabled = false

[Config final]
extends = _default, D2D_General, DcDMapDynamicInterval, stationary_n1
**.appendResourceSharingDomainId = true
*.misc[*].app[*].app.cmdenv-log-level = debug
*.misc[*].app[*].scheduler.cmdenv-log-level = debug
**.cmdenv-log-level = off

%postrun-command: grep -E "^0.*TestStationaryWorld\.misc\[0\].app\[1\].(scheduler|app)" test.out > test1.out

%contains: test1.out
0.024859969985 TestStationaryWorld.misc[0].app[1].app : 14 enter-cell (before increment): [1, 9] Beacon[id:14, SeqNo.:0|1, rxTime: 24.859969985ms, pos.:(5, 2, 1.3) m] Entry{0, 0.024859969985, 0.024859969985, 14, rsd[-1]}
0.024859969985 TestStationaryWorld.misc[0].app[1].app : 14 enter-cell: [1, 9] Beacon[id:14, SeqNo.:0|1, rxTime: 24.859969985ms, pos.:(5, 2, 1.3) m] Entry{1, 0.024859969985, 0.024859969985, 14, rsd[1]}
0.050342678015 TestStationaryWorld.misc[0].app[1].scheduler : Prior interval: (T_det: 22.4ms, T_rnd: 18.812309015ms, ts: 0s, avg_pkt_size: 11200, pmember: 2, lastTxInterval: -1s)
0.050342678015 TestStationaryWorld.misc[0].app[1].scheduler : Current interval: (T_det: 0s, T_rnd: 0s, ts: 50.342678015ms, avg_pkt_size: 0, pmember: 2, lastTxInterval: -1s)
0.050342678015 TestStationaryWorld.misc[0].app[1].scheduler : Transmit now
0.050342678015 TestStationaryWorld.misc[0].app[1].scheduler :  schedule data quota 200000000 B
0.050342678015 TestStationaryWorld.misc[0].app[1].scheduler :  consumed 40 B from 200000000 B scheduled
0.050342678015 TestStationaryWorld.misc[0].app[1].scheduler : Schedule next transmission attempt at: 50.342678015ms
0.050342678015 TestStationaryWorld.misc[0].app[1].scheduler : Prior interval: (T_det: 0s, T_rnd: 0s, ts: 50.342678015ms, avg_pkt_size: 0, pmember: 2, lastTxInterval: 50.342678015ms)
0.050342678015 TestStationaryWorld.misc[0].app[1].scheduler : Current interval: (T_det: 0s, T_rnd: 0s, ts: 50.342678015ms, avg_pkt_size: 0, pmember: 2, lastTxInterval: 50.342678015ms)
0.050342678015 TestStationaryWorld.misc[0].app[1].scheduler : Delay transmission until 149.879024223ms
0.07532238026 TestStationaryWorld.misc[0].app[1].app : 14 stay-in-cell (prio touch): [1, 9] Beacon[id:14, SeqNo.:1|2, rxTime: 75.32238026ms, pos.:(5, 2, 1.3) m] Entry{1, 0.024859969985, 0.024859969985, 14, rsd[1]}
0.07532238026 TestStationaryWorld.misc[0].app[1].app : 14 stay-in-cell: [1, 9] Beacon[id:14, SeqNo.:1|2, rxTime: 75.32238026ms, pos.:(5, 2, 1.3) m] Entry{1, 0.075, 0.07532238026, 14, rsd[1]}
0.125583710533 TestStationaryWorld.misc[0].app[1].app : 14 stay-in-cell (prio touch): [1, 9] Beacon[id:14, SeqNo.:2|3, rxTime: 125.583710533ms, pos.:(5, 2, 1.3) m] Entry{1, 0.075, 0.07532238026, 14, rsd[1]}
0.125583710533 TestStationaryWorld.misc[0].app[1].app : 14 stay-in-cell: [1, 9] Beacon[id:14, SeqNo.:2|3, rxTime: 125.583710533ms, pos.:(5, 2, 1.3) m] Entry{1, 0.125, 0.125583710533, 14, rsd[1]}
0.149879024223 TestStationaryWorld.misc[0].app[1].scheduler : Prior interval: (T_det: 0s, T_rnd: 0s, ts: 50.342678015ms, avg_pkt_size: 0, pmember: 2, lastTxInterval: 50.342678015ms)
0.149879024223 TestStationaryWorld.misc[0].app[1].scheduler : Current interval: (T_det: 40us, T_rnd: 44.414556us, ts: 149.879024223ms, avg_pkt_size: 20, pmember: 2, lastTxInterval: 50.342678015ms)
0.149879024223 TestStationaryWorld.misc[0].app[1].scheduler : Delay transmission until 150.734626461ms
0.150734626461 TestStationaryWorld.misc[0].app[1].scheduler : Prior interval: (T_det: 0s, T_rnd: 0s, ts: 50.342678015ms, avg_pkt_size: 0, pmember: 2, lastTxInterval: 50.342678015ms)
0.150734626461 TestStationaryWorld.misc[0].app[1].scheduler : Current interval: (T_det: 40us, T_rnd: 27.914787us, ts: 150.734626461ms, avg_pkt_size: 20, pmember: 2, lastTxInterval: 50.342678015ms)
0.150734626461 TestStationaryWorld.misc[0].app[1].scheduler : Transmit now
0.150734626461 TestStationaryWorld.misc[0].app[1].scheduler :  schedule data quota 200000000 B
0.150734626461 TestStationaryWorld.misc[0].app[1].scheduler :  consumed 40 B from 200000000 B scheduled
0.150734626461 TestStationaryWorld.misc[0].app[1].scheduler : Schedule next transmission attempt at: 150.754177163ms
0.150754177163 TestStationaryWorld.misc[0].app[1].scheduler : Prior interval: (T_det: 40us, T_rnd: 19.550702us, ts: 150.734626461ms, avg_pkt_size: 20, pmember: 2, lastTxInterval: 100.391948446ms)
0.150754177163 TestStationaryWorld.misc[0].app[1].scheduler : Current interval: (T_det: 77.5us, T_rnd: 35.744119us, ts: 150.754177163ms, avg_pkt_size: 38.75, pmember: 2, lastTxInterval: 100.391948446ms)
0.150754177163 TestStationaryWorld.misc[0].app[1].scheduler : Delay transmission until 250.994430198ms
0.175750527477 TestStationaryWorld.misc[0].app[1].app : 14 stay-in-cell (prio touch): [1, 9] Beacon[id:14, SeqNo.:3|4, rxTime: 175.750527477ms, pos.:(5, 2, 1.3) m] Entry{1, 0.125, 0.125583710533, 14, rsd[1]}
0.175750527477 TestStationaryWorld.misc[0].app[1].app : 14 stay-in-cell: [1, 9] Beacon[id:14, SeqNo.:3|4, rxTime: 175.750527477ms, pos.:(5, 2, 1.3) m] Entry{1, 0.175, 0.175750527477, 14, rsd[1]}
0.226065477079 TestStationaryWorld.misc[0].app[1].app : 14 stay-in-cell (prio touch): [1, 9] Beacon[id:14, SeqNo.:4|5, rxTime: 226.065477079ms, pos.:(5, 2, 1.3) m] Entry{1, 0.175, 0.175750527477, 14, rsd[1]}
0.226065477079 TestStationaryWorld.misc[0].app[1].app : 14 stay-in-cell: [1, 9] Beacon[id:14, SeqNo.:4|5, rxTime: 226.065477079ms, pos.:(5, 2, 1.3) m] Entry{1, 0.226, 0.226065477079, 14, rsd[1]}
0.250994430198 TestStationaryWorld.misc[0].app[1].scheduler : Prior interval: (T_det: 40us, T_rnd: 19.550702us, ts: 150.734626461ms, avg_pkt_size: 20, pmember: 2, lastTxInterval: 100.391948446ms)
0.250994430198 TestStationaryWorld.misc[0].app[1].scheduler : Current interval: (T_det: 77.5us, T_rnd: 70.099245us, ts: 250.994430198ms, avg_pkt_size: 38.75, pmember: 2, lastTxInterval: 100.391948446ms)
0.250994430198 TestStationaryWorld.misc[0].app[1].scheduler : Transmit now
0.250994430198 TestStationaryWorld.misc[0].app[1].scheduler :  schedule data quota 200000000 B
0.250994430198 TestStationaryWorld.misc[0].app[1].scheduler :  consumed 40 B from 200000000 B scheduled
0.250994430198 TestStationaryWorld.misc[0].app[1].scheduler : Schedule next transmission attempt at: 251.078157152ms
0.251078157152 TestStationaryWorld.misc[0].app[1].scheduler : Prior interval: (T_det: 77.5us, T_rnd: 83.726954us, ts: 250.994430198ms, avg_pkt_size: 38.75, pmember: 2, lastTxInterval: 100.259803737ms)
0.251078157152 TestStationaryWorld.misc[0].app[1].scheduler : Current interval: (T_det: 112.65625us, T_rnd: 84.13581us, ts: 251.078157152ms, avg_pkt_size: 56.3281, pmember: 2, lastTxInterval: 100.259803737ms)
0.251078157152 TestStationaryWorld.misc[0].app[1].scheduler : Delay transmission until 351.455303846ms
0.276359074118 TestStationaryWorld.misc[0].app[1].app : 14 stay-in-cell (prio touch): [1, 9] Beacon[id:14, SeqNo.:5|6, rxTime: 276.359074118ms, pos.:(5, 2, 1.3) m] Entry{1, 0.226, 0.226065477079, 14, rsd[1]}
0.276359074118 TestStationaryWorld.misc[0].app[1].app : 14 stay-in-cell: [1, 9] Beacon[id:14, SeqNo.:5|6, rxTime: 276.359074118ms, pos.:(5, 2, 1.3) m] Entry{1, 0.276, 0.276359074118, 14, rsd[1]}
0.326580796989 TestStationaryWorld.misc[0].app[1].app : 14 stay-in-cell (prio touch): [1, 9] Beacon[id:14, SeqNo.:6|7, rxTime: 326.580796989ms, pos.:(5, 2, 1.3) m] Entry{1, 0.276, 0.276359074118, 14, rsd[1]}
0.326580796989 TestStationaryWorld.misc[0].app[1].app : 14 stay-in-cell: [1, 9] Beacon[id:14, SeqNo.:6|7, rxTime: 326.580796989ms, pos.:(5, 2, 1.3) m] Entry{1, 0.326, 0.326580796989, 14, rsd[1]}
0.351455303846 TestStationaryWorld.misc[0].app[1].scheduler : Prior interval: (T_det: 77.5us, T_rnd: 83.726954us, ts: 250.994430198ms, avg_pkt_size: 38.75, pmember: 2, lastTxInterval: 100.259803737ms)
0.351455303846 TestStationaryWorld.misc[0].app[1].scheduler : Current interval: (T_det: 112.65625us, T_rnd: 116.312781us, ts: 351.455303846ms, avg_pkt_size: 56.3281, pmember: 2, lastTxInterval: 100.259803737ms)
0.351455303846 TestStationaryWorld.misc[0].app[1].scheduler : Delay transmission until 351.910227513ms
0.351910227513 TestStationaryWorld.misc[0].app[1].scheduler : Prior interval: (T_det: 77.5us, T_rnd: 83.726954us, ts: 250.994430198ms, avg_pkt_size: 38.75, pmember: 2, lastTxInterval: 100.259803737ms)
0.351910227513 TestStationaryWorld.misc[0].app[1].scheduler : Current interval: (T_det: 112.65625us, T_rnd: 46.242524us, ts: 351.910227513ms, avg_pkt_size: 56.3281, pmember: 2, lastTxInterval: 100.259803737ms)
0.351910227513 TestStationaryWorld.misc[0].app[1].scheduler : Transmit now
0.351910227513 TestStationaryWorld.misc[0].app[1].scheduler :  schedule data quota 200000000 B
0.351910227513 TestStationaryWorld.misc[0].app[1].scheduler :  consumed 40 B from 200000000 B scheduled
0.351910227513 TestStationaryWorld.misc[0].app[1].scheduler : Schedule next transmission attempt at: 351.969058132ms
0.351969058132 TestStationaryWorld.misc[0].app[1].scheduler : Prior interval: (T_det: 112.65625us, T_rnd: 58.830619us, ts: 351.910227513ms, avg_pkt_size: 56.3281, pmember: 2, lastTxInterval: 100.915797315ms)
0.351969058132 TestStationaryWorld.misc[0].app[1].scheduler : Current interval: (T_det: 145.615234us, T_rnd: 149.298852us, ts: 351.969058132ms, avg_pkt_size: 72.8076, pmember: 2, lastTxInterval: 100.915797315ms)
0.351969058132 TestStationaryWorld.misc[0].app[1].scheduler : Delay transmission until 451.846121705ms
0.376978993273 TestStationaryWorld.misc[0].app[1].app : 14 stay-in-cell (prio touch): [1, 9] Beacon[id:14, SeqNo.:7|8, rxTime: 376.978993273ms, pos.:(5, 2, 1.3) m] Entry{1, 0.326, 0.326580796989, 14, rsd[1]}
0.376978993273 TestStationaryWorld.misc[0].app[1].app : 14 stay-in-cell: [1, 9] Beacon[id:14, SeqNo.:7|8, rxTime: 376.978993273ms, pos.:(5, 2, 1.3) m] Entry{1, 0.376, 0.376978993273, 14, rsd[1]}
0.426670305831 TestStationaryWorld.misc[0].app[1].app : 14 stay-in-cell (prio touch): [1, 9] Beacon[id:14, SeqNo.:8|9, rxTime: 426.670305831ms, pos.:(5, 2, 1.3) m] Entry{1, 0.376, 0.376978993273, 14, rsd[1]}
0.426670305831 TestStationaryWorld.misc[0].app[1].app : 14 stay-in-cell: [1, 9] Beacon[id:14, SeqNo.:8|9, rxTime: 426.670305831ms, pos.:(5, 2, 1.3) m] Entry{1, 0.426, 0.426670305831, 14, rsd[1]}
0.451846121705 TestStationaryWorld.misc[0].app[1].scheduler : Prior interval: (T_det: 112.65625us, T_rnd: 58.830619us, ts: 351.910227513ms, avg_pkt_size: 56.3281, pmember: 2, lastTxInterval: 100.915797315ms)
0.451846121705 TestStationaryWorld.misc[0].app[1].scheduler : Current interval: (T_det: 145.615234us, T_rnd: 76.971347us, ts: 451.846121705ms, avg_pkt_size: 72.8076, pmember: 2, lastTxInterval: 100.915797315ms)
0.451846121705 TestStationaryWorld.misc[0].app[1].scheduler : Transmit now
0.451846121705 TestStationaryWorld.misc[0].app[1].scheduler :  schedule data quota 200000000 B
0.451846121705 TestStationaryWorld.misc[0].app[1].scheduler :  consumed 40 B from 200000000 B scheduled
0.451846121705 TestStationaryWorld.misc[0].app[1].scheduler : Schedule next transmission attempt at: 452.001880106ms
0.452001880106 TestStationaryWorld.misc[0].app[1].scheduler : Prior interval: (T_det: 145.615234us, T_rnd: 155.758401us, ts: 451.846121705ms, avg_pkt_size: 72.8076, pmember: 2, lastTxInterval: 99.935894192ms)
0.452001880106 TestStationaryWorld.misc[0].app[1].scheduler : Current interval: (T_det: 176.514282us, T_rnd: 175.802676us, ts: 452.001880106ms, avg_pkt_size: 88.2571, pmember: 2, lastTxInterval: 99.935894192ms)
0.452001880106 TestStationaryWorld.misc[0].app[1].scheduler : Delay transmission until 550.920483992ms
0.476932602746 TestStationaryWorld.misc[0].app[1].app : 14 stay-in-cell (prio touch): [1, 9] Beacon[id:14, SeqNo.:9|10, rxTime: 476.932602746ms, pos.:(5, 2, 1.3) m] Entry{1, 0.426, 0.426670305831, 14, rsd[1]}
0.476932602746 TestStationaryWorld.misc[0].app[1].app : 14 stay-in-cell: [1, 9] Beacon[id:14, SeqNo.:9|10, rxTime: 476.932602746ms, pos.:(5, 2, 1.3) m] Entry{1, 0.476, 0.476932602746, 14, rsd[1]}



%contains: stdout
<!> Simulation time limit reached -- at t=0.5s
