%description:
DcDMap sends data after neighborhood table is updated. 

%file: package.ned 
// 
// empty: no namespace
//

%inifile: omnetpp.ini
[General]
network = crownet.test.omnetpp.lib.TestStationaryWorld
sim-time-limit= 500ms
ned-path = ../../lib
include ../lib/default_testConfig.ini
**.vector-recording = false
**.scalar-recording = false
**.routingRecorder.enabled = false

[Config final]
extends = _default, D2D_General, DcDMap, stationary_n1
*.misc[*].app[1].scheduler.generationInterval = 100ms
*.misc[*].app[1].scheduler.numberPackets = -1
*.misc[*].app[1].scheduler.amoutOfData = 1000B
# update interval bigger than sim time. Do not sent data in this case
*.misc[*].app[1].app.localMapUpdateInterval = 300ms

%postrun-command: grep -E "^0.*TestStationaryWorld\.misc\[0\].app\[1\].(scheduler|app)" test.out > test1.out

%contains: test1.out
0.05 TestStationaryWorld.misc[0].app[1].app : 14 postChange:14;50ms;0;(5, 2, 1.3) m;0;
0.1 TestStationaryWorld.misc[0].app[1].scheduler :  schedule data quota 1000 B
0.1 TestStationaryWorld.misc[0].app[1].scheduler :  consumed 40 B from 1000 B scheduled
0.1 TestStationaryWorld.misc[0].app[1].app : 14 preChange:14;50ms;0;(5, 2, 1.3) m;0;
0.1 TestStationaryWorld.misc[0].app[1].app : 14 postChange:14;100ms;0;(5, 2, 1.3) m;0;
0.15 TestStationaryWorld.misc[0].app[1].app : 14 preChange:14;100ms;0;(5, 2, 1.3) m;0;
0.15 TestStationaryWorld.misc[0].app[1].app : 14 postChange:14;150ms;0;(5, 2, 1.3) m;0;
0.2 TestStationaryWorld.misc[0].app[1].scheduler :  schedule data quota 1000 B
0.2 TestStationaryWorld.misc[0].app[1].scheduler :  consumed 40 B from 1000 B scheduled
0.2 TestStationaryWorld.misc[0].app[1].app : 14 preChange:14;150ms;0;(5, 2, 1.3) m;0;
0.2 TestStationaryWorld.misc[0].app[1].app : 14 postChange:14;200ms;0;(5, 2, 1.3) m;0;
0.25 TestStationaryWorld.misc[0].app[1].app : 14 preChange:14;200ms;0;(5, 2, 1.3) m;0;
0.25 TestStationaryWorld.misc[0].app[1].app : 14 postChange:14;250ms;0;(5, 2, 1.3) m;0;
0.3 TestStationaryWorld.misc[0].app[1].scheduler :  schedule data quota 1000 B
0.3 TestStationaryWorld.misc[0].app[1].scheduler :  consumed 40 B from 1000 B scheduled
0.3 TestStationaryWorld.misc[0].app[1].app : 14 preChange:14;250ms;0;(5, 2, 1.3) m;0;
0.3 TestStationaryWorld.misc[0].app[1].app : 14 postChange:14;300ms;0;(5, 2, 1.3) m;0;
0.35 TestStationaryWorld.misc[0].app[1].app : 14 preChange:14;300ms;0;(5, 2, 1.3) m;0;
0.35 TestStationaryWorld.misc[0].app[1].app : 14 postChange:14;350ms;0;(5, 2, 1.3) m;0;
0.4 TestStationaryWorld.misc[0].app[1].scheduler :  schedule data quota 1000 B
0.4 TestStationaryWorld.misc[0].app[1].scheduler :  consumed 40 B from 1000 B scheduled
0.4 TestStationaryWorld.misc[0].app[1].app : 14 preChange:14;350ms;0;(5, 2, 1.3) m;0;
0.4 TestStationaryWorld.misc[0].app[1].app : 14 postChange:14;400ms;0;(5, 2, 1.3) m;0;
0.45 TestStationaryWorld.misc[0].app[1].app : 14 preChange:14;400ms;0;(5, 2, 1.3) m;0;
0.45 TestStationaryWorld.misc[0].app[1].app : 14 postChange:14;450ms;0;(5, 2, 1.3) m;0;
0.5 TestStationaryWorld.misc[0].app[1].scheduler :  schedule data quota 1000 B
0.5 TestStationaryWorld.misc[0].app[1].scheduler :  consumed 40 B from 1000 B scheduled
0.5 TestStationaryWorld.misc[0].app[1].app : 14 preChange:14;450ms;0;(5, 2, 1.3) m;0;
0.5 TestStationaryWorld.misc[0].app[1].app : 14 postChange:14;500ms;0;(5, 2, 1.3) m;0;
%contains: stdout
<!> Simulation time limit reached -- at t=0.5s
