%description:
DcDMap sends data after neighborhood table is updated. 

%file: package.ned 
// 
// empty: no namespace
//

%inifile: omnetpp.ini
[General]
network = crownet.test.omnetpp.lib.TestStationaryWorld
sim-time-limit= 500ms
ned-path = ../../lib
include ../lib/default_testConfig.ini
**.vector-recording = false
**.scalar-recording = false
**.routingRecorder.enabled = false

[Config final]
extends = _default, D2D_General, DcDMapDynamicInterval, stationary_n1

%postrun-command: grep -E "^0.*TestStationaryWorld\.misc\[0\].app\[1\].(scheduler|app)" test.out > test1.out

%contains: test1.out
0.028814045629 TestStationaryWorld.misc[0].app[1].app : 14 enter-cell (prio increment): [1, 9] Beacon[id:14, SeqNo.:0|1, rxTime: 28.814045629ms, pos.:(5, 2, 1.3) m] Entry{0, 0.028814045629, 0.028814045629, 14}
0.028814045629 TestStationaryWorld.misc[0].app[1].app : 14 enter-cell: [1, 9] Beacon[id:14, SeqNo.:0|1, rxTime: 28.814045629ms, pos.:(5, 2, 1.3) m] Entry{1, 0.028814045629, 0.028814045629, 14}
0.035557673618 TestStationaryWorld.misc[0].app[1].scheduler : Prio interval: (T_det: 50ms, T_rnd: 35.557673618ms, ts: 0s, avg_pkt_size: 1400 B, pmember: 1)
0.035557673618 TestStationaryWorld.misc[0].app[1].scheduler : Current interval: (T_det: 50ms, T_rnd: 24.440018937ms, ts: 35.557673618ms, avg_pkt_size: 0 B, pmember: 1)
0.035557673618 TestStationaryWorld.misc[0].app[1].scheduler : Transmit now
0.035557673618 TestStationaryWorld.misc[0].app[1].scheduler :  schedule data quota 200000000 B
0.035557673618 TestStationaryWorld.misc[0].app[1].scheduler :  consumed 40 B from 200000000 B scheduled
0.035557673618 TestStationaryWorld.misc[0].app[1].scheduler : Schedule next transmission attempt at: 59.997692555ms
0.059997692555 TestStationaryWorld.misc[0].app[1].scheduler : Prio interval: (T_det: 50ms, T_rnd: 24.440018937ms, ts: 35.557673618ms, avg_pkt_size: 0 B, pmember: 1)
0.059997692555 TestStationaryWorld.misc[0].app[1].scheduler : Current interval: (T_det: 100ms, T_rnd: 46.246018972ms, ts: 59.997692555ms, avg_pkt_size: 20 b, pmember: 1)
0.059997692555 TestStationaryWorld.misc[0].app[1].scheduler : Delay transmission until 81.80369259ms
0.08180369259 TestStationaryWorld.misc[0].app[1].scheduler : Prio interval: (T_det: 50ms, T_rnd: 24.440018937ms, ts: 35.557673618ms, avg_pkt_size: 0 B, pmember: 1)
0.08180369259 TestStationaryWorld.misc[0].app[1].scheduler : Current interval: (T_det: 100ms, T_rnd: 122.095007571ms, ts: 81.80369259ms, avg_pkt_size: 20 b, pmember: 1)
0.08180369259 TestStationaryWorld.misc[0].app[1].scheduler : Delay transmission until 157.652681189ms
0.08970533669 TestStationaryWorld.misc[0].app[1].app : 14 stay-in-cell (prio touch): [1, 9] Beacon[id:14, SeqNo.:1|2, rxTime: 89.70533669ms, pos.:(5, 2, 1.3) m] Entry{1, 0.028814045629, 0.028814045629, 14}
0.08970533669 TestStationaryWorld.misc[0].app[1].app : 14 stay-in-cell: [1, 9] Beacon[id:14, SeqNo.:1|2, rxTime: 89.70533669ms, pos.:(5, 2, 1.3) m] Entry{1, 0.089, 0.08970533669, 14}
0.149966860662 TestStationaryWorld.misc[0].app[1].app : 14 stay-in-cell (prio touch): [1, 9] Beacon[id:14, SeqNo.:2|3, rxTime: 149.966860662ms, pos.:(5, 2, 1.3) m] Entry{1, 0.089, 0.08970533669, 14}
0.149966860662 TestStationaryWorld.misc[0].app[1].app : 14 stay-in-cell: [1, 9] Beacon[id:14, SeqNo.:2|3, rxTime: 149.966860662ms, pos.:(5, 2, 1.3) m] Entry{1, 0.149, 0.149966860662, 14}
0.157652681189 TestStationaryWorld.misc[0].app[1].scheduler : Prio interval: (T_det: 50ms, T_rnd: 24.440018937ms, ts: 35.557673618ms, avg_pkt_size: 0 B, pmember: 1)
0.157652681189 TestStationaryWorld.misc[0].app[1].scheduler : Current interval: (T_det: 100ms, T_rnd: 80.229216895ms, ts: 157.652681189ms, avg_pkt_size: 20 b, pmember: 1)
0.157652681189 TestStationaryWorld.misc[0].app[1].scheduler : Transmit now
0.157652681189 TestStationaryWorld.misc[0].app[1].scheduler :  schedule data quota 200000000 B
0.157652681189 TestStationaryWorld.misc[0].app[1].scheduler :  consumed 40 B from 200000000 B scheduled
0.157652681189 TestStationaryWorld.misc[0].app[1].scheduler : Schedule next transmission attempt at: 237.881898084ms
0.210209783726 TestStationaryWorld.misc[0].app[1].app : 14 stay-in-cell (prio touch): [1, 9] Beacon[id:14, SeqNo.:3|4, rxTime: 210.209783726ms, pos.:(5, 2, 1.3) m] Entry{1, 0.149, 0.149966860662, 14}
0.210209783726 TestStationaryWorld.misc[0].app[1].app : 14 stay-in-cell: [1, 9] Beacon[id:14, SeqNo.:3|4, rxTime: 210.209783726ms, pos.:(5, 2, 1.3) m] Entry{1, 0.21, 0.210209783726, 14}
0.237881898084 TestStationaryWorld.misc[0].app[1].scheduler : Prio interval: (T_det: 100ms, T_rnd: 80.229216895ms, ts: 157.652681189ms, avg_pkt_size: 20 b, pmember: 1)
0.237881898084 TestStationaryWorld.misc[0].app[1].scheduler : Current interval: (T_det: 100ms, T_rnd: 108.095972979ms, ts: 237.881898084ms, avg_pkt_size: 38 b, pmember: 1)
0.237881898084 TestStationaryWorld.misc[0].app[1].scheduler : Delay transmission until 265.748654168ms
0.265748654168 TestStationaryWorld.misc[0].app[1].scheduler : Prio interval: (T_det: 100ms, T_rnd: 80.229216895ms, ts: 157.652681189ms, avg_pkt_size: 20 b, pmember: 1)
0.265748654168 TestStationaryWorld.misc[0].app[1].scheduler : Current interval: (T_det: 100ms, T_rnd: 41.641849836ms, ts: 265.748654168ms, avg_pkt_size: 38 b, pmember: 1)
0.265748654168 TestStationaryWorld.misc[0].app[1].scheduler : Transmit now
0.265748654168 TestStationaryWorld.misc[0].app[1].scheduler :  schedule data quota 200000000 B
0.265748654168 TestStationaryWorld.misc[0].app[1].scheduler :  consumed 40 B from 200000000 B scheduled
0.265748654168 TestStationaryWorld.misc[0].app[1].scheduler : Schedule next transmission attempt at: 307.390504004ms
0.270548684448 TestStationaryWorld.misc[0].app[1].app : 14 stay-in-cell (prio touch): [1, 9] Beacon[id:14, SeqNo.:4|5, rxTime: 270.548684448ms, pos.:(5, 2, 1.3) m] Entry{1, 0.21, 0.210209783726, 14}
0.270548684448 TestStationaryWorld.misc[0].app[1].app : 14 stay-in-cell: [1, 9] Beacon[id:14, SeqNo.:4|5, rxTime: 270.548684448ms, pos.:(5, 2, 1.3) m] Entry{1, 0.27, 0.270548684448, 14}
0.307390504004 TestStationaryWorld.misc[0].app[1].scheduler : Prio interval: (T_det: 100ms, T_rnd: 41.641849836ms, ts: 265.748654168ms, avg_pkt_size: 38 b, pmember: 1)
0.307390504004 TestStationaryWorld.misc[0].app[1].scheduler : Current interval: (T_det: 100ms, T_rnd: 79.368105852ms, ts: 307.390504004ms, avg_pkt_size: 55 b, pmember: 1)
0.307390504004 TestStationaryWorld.misc[0].app[1].scheduler : Delay transmission until 345.11676002ms
0.317045551022 TestStationaryWorld.misc[0].app[1].app : 14 stay-in-cell (prio touch): [1, 9] Beacon[id:14, SeqNo.:5|6, rxTime: 317.045551022ms, pos.:(5, 2, 1.3) m] Entry{1, 0.27, 0.270548684448, 14}
0.317045551022 TestStationaryWorld.misc[0].app[1].app : 14 stay-in-cell: [1, 9] Beacon[id:14, SeqNo.:5|6, rxTime: 317.045551022ms, pos.:(5, 2, 1.3) m] Entry{1, 0.317, 0.317045551022, 14}
0.34511676002 TestStationaryWorld.misc[0].app[1].scheduler : Prio interval: (T_det: 100ms, T_rnd: 41.641849836ms, ts: 265.748654168ms, avg_pkt_size: 38 b, pmember: 1)
0.34511676002 TestStationaryWorld.misc[0].app[1].scheduler : Current interval: (T_det: 100ms, T_rnd: 93.413933784ms, ts: 345.11676002ms, avg_pkt_size: 55 b, pmember: 1)
0.34511676002 TestStationaryWorld.misc[0].app[1].scheduler : Delay transmission until 359.162587952ms
0.359162587952 TestStationaryWorld.misc[0].app[1].scheduler : Prio interval: (T_det: 100ms, T_rnd: 41.641849836ms, ts: 265.748654168ms, avg_pkt_size: 38 b, pmember: 1)
0.359162587952 TestStationaryWorld.misc[0].app[1].scheduler : Current interval: (T_det: 100ms, T_rnd: 75.421719807ms, ts: 359.162587952ms, avg_pkt_size: 55 b, pmember: 1)
0.359162587952 TestStationaryWorld.misc[0].app[1].scheduler : Transmit now
0.359162587952 TestStationaryWorld.misc[0].app[1].scheduler :  schedule data quota 200000000 B
0.359162587952 TestStationaryWorld.misc[0].app[1].scheduler :  consumed 40 B from 200000000 B scheduled
0.359162587952 TestStationaryWorld.misc[0].app[1].scheduler : Schedule next transmission attempt at: 434.584307759ms
0.369027896943 TestStationaryWorld.misc[0].app[1].app : 14 stay-in-cell (prio touch): [1, 9] Beacon[id:14, SeqNo.:6|7, rxTime: 369.027896943ms, pos.:(5, 2, 1.3) m] Entry{1, 0.317, 0.317045551022, 14}
0.369027896943 TestStationaryWorld.misc[0].app[1].app : 14 stay-in-cell: [1, 9] Beacon[id:14, SeqNo.:6|7, rxTime: 369.027896943ms, pos.:(5, 2, 1.3) m] Entry{1, 0.369, 0.369027896943, 14}
0.429239911444 TestStationaryWorld.misc[0].app[1].app : 14 stay-in-cell (prio touch): [1, 9] Beacon[id:14, SeqNo.:7|8, rxTime: 429.239911444ms, pos.:(5, 2, 1.3) m] Entry{1, 0.369, 0.369027896943, 14}
0.429239911444 TestStationaryWorld.misc[0].app[1].app : 14 stay-in-cell: [1, 9] Beacon[id:14, SeqNo.:7|8, rxTime: 429.239911444ms, pos.:(5, 2, 1.3) m] Entry{1, 0.429, 0.429239911444, 14}
0.434584307759 TestStationaryWorld.misc[0].app[1].scheduler : Prio interval: (T_det: 100ms, T_rnd: 75.421719807ms, ts: 359.162587952ms, avg_pkt_size: 55 b, pmember: 1)
0.434584307759 TestStationaryWorld.misc[0].app[1].scheduler : Current interval: (T_det: 100ms, T_rnd: 119.801312455ms, ts: 434.584307759ms, avg_pkt_size: 71 b, pmember: 1)
0.434584307759 TestStationaryWorld.misc[0].app[1].scheduler : Delay transmission until 478.963900407ms
0.473886981882 TestStationaryWorld.misc[0].app[1].app : 14 stay-in-cell (prio touch): [1, 9] Beacon[id:14, SeqNo.:8|9, rxTime: 473.886981882ms, pos.:(5, 2, 1.3) m] Entry{1, 0.429, 0.429239911444, 14}
0.473886981882 TestStationaryWorld.misc[0].app[1].app : 14 stay-in-cell: [1, 9] Beacon[id:14, SeqNo.:8|9, rxTime: 473.886981882ms, pos.:(5, 2, 1.3) m] Entry{1, 0.473, 0.473886981882, 14}
0.478963900407 TestStationaryWorld.misc[0].app[1].scheduler : Prio interval: (T_det: 100ms, T_rnd: 75.421719807ms, ts: 359.162587952ms, avg_pkt_size: 55 b, pmember: 1)
0.478963900407 TestStationaryWorld.misc[0].app[1].scheduler : Current interval: (T_det: 100ms, T_rnd: 108.416865956ms, ts: 478.963900407ms, avg_pkt_size: 71 b, pmember: 1)
0.478963900407 TestStationaryWorld.misc[0].app[1].scheduler : Transmit now
0.478963900407 TestStationaryWorld.misc[0].app[1].scheduler :  schedule data quota 200000000 B
0.478963900407 TestStationaryWorld.misc[0].app[1].scheduler :  consumed 40 B from 200000000 B scheduled
0.478963900407 TestStationaryWorld.misc[0].app[1].scheduler : Schedule next transmission attempt at: 587.380766363ms



%contains: stdout
<!> Simulation time limit reached -- at t=0.5s
