%description:
DcDMap sends data after neighborhood table is updated. 

%file: package.ned 
// 
// empty: no namespace
//

%inifile: omnetpp.ini
[General]
network = crownet.test.omnetpp.lib.TestStationaryWorld
sim-time-limit= 500ms
ned-path = ../../lib
include ../lib/default_testConfig.ini
**.vector-recording = false
**.scalar-recording = false
**.routingRecorder.enabled = false

[Config final]
extends = _default, D2D_General, DcDMap, stationary_n1
*.misc[*].app[1].scheduler.generationInterval = 100ms
*.misc[*].app[1].scheduler.numberPackets = -1
*.misc[*].app[1].scheduler.amoutOfData = 1000B
# update interval bigger than sim time. Do not sent data in this case
*.misc[*].app[1].app.localMapUpdateInterval = 300ms

%postrun-command: grep -E "^0.*TestStationaryWorld\.misc\[0\].app\[1\].(scheduler|app)" test.out > test1.out

%contains: test1.out
0.05 TestStationaryWorld.misc[0].app[1].app : 14 enter-cell:nodeId: 14, rxTime: 50ms, maxSeqNo.:1, pos.:(5, 2, 1.3) m, No.Neighbours: 0
0.1 TestStationaryWorld.misc[0].app[1].scheduler :  schedule data quota 1000 B
0.1 TestStationaryWorld.misc[0].app[1].scheduler :  consumed 40 B from 1000 B scheduled
0.1 TestStationaryWorld.misc[0].app[1].app : 14 stay-in-cell:nodeId: 14, rxTime: 100ms, maxSeqNo.:2, pos.:(5, 2, 1.3) m, No.Neighbours: 0
0.15 TestStationaryWorld.misc[0].app[1].app : 14 stay-in-cell:nodeId: 14, rxTime: 150ms, maxSeqNo.:3, pos.:(5, 2, 1.3) m, No.Neighbours: 0
0.2 TestStationaryWorld.misc[0].app[1].scheduler :  schedule data quota 1000 B
0.2 TestStationaryWorld.misc[0].app[1].scheduler :  consumed 40 B from 1000 B scheduled
0.2 TestStationaryWorld.misc[0].app[1].app : 14 stay-in-cell:nodeId: 14, rxTime: 200ms, maxSeqNo.:4, pos.:(5, 2, 1.3) m, No.Neighbours: 0
0.25 TestStationaryWorld.misc[0].app[1].app : 14 stay-in-cell:nodeId: 14, rxTime: 250ms, maxSeqNo.:5, pos.:(5, 2, 1.3) m, No.Neighbours: 0
0.3 TestStationaryWorld.misc[0].app[1].scheduler :  schedule data quota 1000 B
0.3 TestStationaryWorld.misc[0].app[1].scheduler :  consumed 40 B from 1000 B scheduled
0.3 TestStationaryWorld.misc[0].app[1].app : 14 stay-in-cell:nodeId: 14, rxTime: 300ms, maxSeqNo.:6, pos.:(5, 2, 1.3) m, No.Neighbours: 0
0.35 TestStationaryWorld.misc[0].app[1].app : 14 stay-in-cell:nodeId: 14, rxTime: 350ms, maxSeqNo.:7, pos.:(5, 2, 1.3) m, No.Neighbours: 0
0.4 TestStationaryWorld.misc[0].app[1].scheduler :  schedule data quota 1000 B
0.4 TestStationaryWorld.misc[0].app[1].scheduler :  consumed 40 B from 1000 B scheduled
0.4 TestStationaryWorld.misc[0].app[1].app : 14 stay-in-cell:nodeId: 14, rxTime: 400ms, maxSeqNo.:8, pos.:(5, 2, 1.3) m, No.Neighbours: 0
0.45 TestStationaryWorld.misc[0].app[1].app : 14 stay-in-cell:nodeId: 14, rxTime: 450ms, maxSeqNo.:9, pos.:(5, 2, 1.3) m, No.Neighbours: 0
0.5 TestStationaryWorld.misc[0].app[1].scheduler :  schedule data quota 1000 B
0.5 TestStationaryWorld.misc[0].app[1].scheduler :  consumed 40 B from 1000 B scheduled
0.5 TestStationaryWorld.misc[0].app[1].app : 14 stay-in-cell:nodeId: 14, rxTime: 500ms, maxSeqNo.:10, pos.:(5, 2, 1.3) m, No.Neighbours: 0
%contains: stdout
<!> Simulation time limit reached -- at t=0.5s
