%description:
DcDMap sends data after neighborhood table is updated. 

%file: package.ned 
// 
// empty: no namespace
//

%inifile: omnetpp.ini
[General]
network = crownet.test.omnetpp.lib.TestStationaryWorld
sim-time-limit= 500ms
ned-path = ../../lib
include ../lib/default_testConfig.ini
**.vector-recording = false
**.scalar-recording = false
**.routingRecorder.enabled = false

[Config final]
extends = _default, D2D_General, DcDMapDynamicInterval, stationary_n1
*.misc[*].app[*].app.cmdenv-log-level = debug
*.misc[*].app[*].scheduler.cmdenv-log-level = debug
**.cmdenv-log-level = off

%postrun-command: grep -E "^0.*TestStationaryWorld\.misc\[0\].app\[1\].(scheduler|app)" test.out > test1.out

%contains: test1.out
0.02413303676 TestStationaryWorld.misc[0].app[1].app : 14 enter-cell (prio increment): [1, 9] Beacon[id:14, SeqNo.:0|1, rxTime: 24.13303676ms, pos.:(5, 2, 1.3) m] Entry{0, 0.02413303676, 0.02413303676, 14, rsd[-1]}
0.02413303676 TestStationaryWorld.misc[0].app[1].app : 14 enter-cell: [1, 9] Beacon[id:14, SeqNo.:0|1, rxTime: 24.13303676ms, pos.:(5, 2, 1.3) m] Entry{1, 0.02413303676, 0.02413303676, 14, rsd[1]}
0.058534780036 TestStationaryWorld.misc[0].app[1].scheduler : Prio interval: (T_det: 50ms, T_rnd: 58.534780036ms, ts: 0s, avg_pkt_size: 1400 B, pmember: 1, lastTxInterval: -1s)
0.058534780036 TestStationaryWorld.misc[0].app[1].scheduler : Current interval: (T_det: 50ms, T_rnd: 42.877188758ms, ts: 58.534780036ms, avg_pkt_size: 0 B, pmember: 1, lastTxInterval: -1s)
0.058534780036 TestStationaryWorld.misc[0].app[1].scheduler : Transmit now
0.058534780036 TestStationaryWorld.misc[0].app[1].scheduler :  schedule data quota 200000000 B
0.058534780036 TestStationaryWorld.misc[0].app[1].scheduler :  consumed 40 B from 200000000 B scheduled
0.058534780036 TestStationaryWorld.misc[0].app[1].scheduler : Schedule next transmission attempt at: 101.411968794ms
0.082968034576 TestStationaryWorld.misc[0].app[1].app : 14 stay-in-cell (prio touch): [1, 9] Beacon[id:14, SeqNo.:1|2, rxTime: 82.968034576ms, pos.:(5, 2, 1.3) m] Entry{1, 0.02413303676, 0.02413303676, 14, rsd[1]}
0.082968034576 TestStationaryWorld.misc[0].app[1].app : 14 stay-in-cell: [1, 9] Beacon[id:14, SeqNo.:1|2, rxTime: 82.968034576ms, pos.:(5, 2, 1.3) m] Entry{1, 0.082, 0.082968034576, 14, rsd[1]}
0.101411968794 TestStationaryWorld.misc[0].app[1].scheduler : Prio interval: (T_det: 50ms, T_rnd: 42.877188758ms, ts: 58.534780036ms, avg_pkt_size: 0 B, pmember: 1, lastTxInterval: 58.534780036ms)
0.101411968794 TestStationaryWorld.misc[0].app[1].scheduler : Current interval: (T_det: 100ms, T_rnd: 59.379265687ms, ts: 101.411968794ms, avg_pkt_size: 20 b, pmember: 1, lastTxInterval: 58.534780036ms)
0.101411968794 TestStationaryWorld.misc[0].app[1].scheduler : Delay transmission until 117.914045723ms
0.117914045723 TestStationaryWorld.misc[0].app[1].scheduler : Prio interval: (T_det: 50ms, T_rnd: 42.877188758ms, ts: 58.534780036ms, avg_pkt_size: 0 B, pmember: 1, lastTxInterval: 58.534780036ms)
0.117914045723 TestStationaryWorld.misc[0].app[1].scheduler : Current interval: (T_det: 100ms, T_rnd: 89.934741863ms, ts: 117.914045723ms, avg_pkt_size: 20 b, pmember: 1, lastTxInterval: 58.534780036ms)
0.117914045723 TestStationaryWorld.misc[0].app[1].scheduler : Delay transmission until 148.469521899ms
0.143229558548 TestStationaryWorld.misc[0].app[1].app : 14 stay-in-cell (prio touch): [1, 9] Beacon[id:14, SeqNo.:2|3, rxTime: 143.229558548ms, pos.:(5, 2, 1.3) m] Entry{1, 0.082, 0.082968034576, 14, rsd[1]}
0.143229558548 TestStationaryWorld.misc[0].app[1].app : 14 stay-in-cell: [1, 9] Beacon[id:14, SeqNo.:2|3, rxTime: 143.229558548ms, pos.:(5, 2, 1.3) m] Entry{1, 0.143, 0.143229558548, 14, rsd[1]}
0.148469521899 TestStationaryWorld.misc[0].app[1].scheduler : Prio interval: (T_det: 50ms, T_rnd: 42.877188758ms, ts: 58.534780036ms, avg_pkt_size: 0 B, pmember: 1, lastTxInterval: 58.534780036ms)
0.148469521899 TestStationaryWorld.misc[0].app[1].scheduler : Current interval: (T_det: 100ms, T_rnd: 80.229216895ms, ts: 148.469521899ms, avg_pkt_size: 20 b, pmember: 1, lastTxInterval: 58.534780036ms)
0.148469521899 TestStationaryWorld.misc[0].app[1].scheduler : Transmit now
0.148469521899 TestStationaryWorld.misc[0].app[1].scheduler :  schedule data quota 200000000 B
0.148469521899 TestStationaryWorld.misc[0].app[1].scheduler :  consumed 40 B from 200000000 B scheduled
0.148469521899 TestStationaryWorld.misc[0].app[1].scheduler : Schedule next transmission attempt at: 228.698738794ms
0.203472481612 TestStationaryWorld.misc[0].app[1].app : 14 stay-in-cell (prio touch): [1, 9] Beacon[id:14, SeqNo.:3|4, rxTime: 203.472481612ms, pos.:(5, 2, 1.3) m] Entry{1, 0.143, 0.143229558548, 14, rsd[1]}
0.203472481612 TestStationaryWorld.misc[0].app[1].app : 14 stay-in-cell: [1, 9] Beacon[id:14, SeqNo.:3|4, rxTime: 203.472481612ms, pos.:(5, 2, 1.3) m] Entry{1, 0.203, 0.203472481612, 14, rsd[1]}
0.228698738794 TestStationaryWorld.misc[0].app[1].scheduler : Prio interval: (T_det: 100ms, T_rnd: 80.229216895ms, ts: 148.469521899ms, avg_pkt_size: 20 b, pmember: 1, lastTxInterval: 89.934741863ms)
0.228698738794 TestStationaryWorld.misc[0].app[1].scheduler : Current interval: (T_det: 100ms, T_rnd: 57.74058783ms, ts: 228.698738794ms, avg_pkt_size: 38 b, pmember: 1, lastTxInterval: 89.934741863ms)
0.228698738794 TestStationaryWorld.misc[0].app[1].scheduler : Transmit now
0.228698738794 TestStationaryWorld.misc[0].app[1].scheduler :  schedule data quota 200000000 B
0.228698738794 TestStationaryWorld.misc[0].app[1].scheduler :  consumed 40 B from 200000000 B scheduled
0.228698738794 TestStationaryWorld.misc[0].app[1].scheduler : Schedule next transmission attempt at: 286.439326624ms
0.24703670426 TestStationaryWorld.misc[0].app[1].app : 14 stay-in-cell (prio touch): [1, 9] Beacon[id:14, SeqNo.:4|5, rxTime: 247.03670426ms, pos.:(5, 2, 1.3) m] Entry{1, 0.203, 0.203472481612, 14, rsd[1]}
0.24703670426 TestStationaryWorld.misc[0].app[1].app : 14 stay-in-cell: [1, 9] Beacon[id:14, SeqNo.:4|5, rxTime: 247.03670426ms, pos.:(5, 2, 1.3) m] Entry{1, 0.247, 0.24703670426, 14, rsd[1]}
0.283040411267 TestStationaryWorld.misc[0].app[1].app : 14 stay-in-cell (prio touch): [1, 9] Beacon[id:14, SeqNo.:5|6, rxTime: 283.040411267ms, pos.:(5, 2, 1.3) m] Entry{1, 0.247, 0.24703670426, 14, rsd[1]}
0.283040411267 TestStationaryWorld.misc[0].app[1].app : 14 stay-in-cell: [1, 9] Beacon[id:14, SeqNo.:5|6, rxTime: 283.040411267ms, pos.:(5, 2, 1.3) m] Entry{1, 0.283, 0.283040411267, 14, rsd[1]}
0.286439326624 TestStationaryWorld.misc[0].app[1].scheduler : Prio interval: (T_det: 100ms, T_rnd: 57.74058783ms, ts: 228.698738794ms, avg_pkt_size: 38 b, pmember: 1, lastTxInterval: 80.229216895ms)
0.286439326624 TestStationaryWorld.misc[0].app[1].scheduler : Current interval: (T_det: 100ms, T_rnd: 112.250339077ms, ts: 286.439326624ms, avg_pkt_size: 55 b, pmember: 1, lastTxInterval: 80.229216895ms)
0.286439326624 TestStationaryWorld.misc[0].app[1].scheduler : Delay transmission until 340.949077871ms
0.309346315325 TestStationaryWorld.misc[0].app[1].app : 14 stay-in-cell (prio touch): [1, 9] Beacon[id:14, SeqNo.:6|7, rxTime: 309.346315325ms, pos.:(5, 2, 1.3) m] Entry{1, 0.283, 0.283040411267, 14, rsd[1]}
0.309346315325 TestStationaryWorld.misc[0].app[1].app : 14 stay-in-cell: [1, 9] Beacon[id:14, SeqNo.:6|7, rxTime: 309.346315325ms, pos.:(5, 2, 1.3) m] Entry{1, 0.309, 0.309346315325, 14, rsd[1]}
0.340949077871 TestStationaryWorld.misc[0].app[1].scheduler : Prio interval: (T_det: 100ms, T_rnd: 57.74058783ms, ts: 228.698738794ms, avg_pkt_size: 38 b, pmember: 1, lastTxInterval: 80.229216895ms)
0.340949077871 TestStationaryWorld.misc[0].app[1].scheduler : Current interval: (T_det: 100ms, T_rnd: 86.93085178ms, ts: 340.949077871ms, avg_pkt_size: 55 b, pmember: 1, lastTxInterval: 80.229216895ms)
0.340949077871 TestStationaryWorld.misc[0].app[1].scheduler : Transmit now
0.340949077871 TestStationaryWorld.misc[0].app[1].scheduler :  schedule data quota 200000000 B
0.340949077871 TestStationaryWorld.misc[0].app[1].scheduler :  consumed 40 B from 200000000 B scheduled
0.340949077871 TestStationaryWorld.misc[0].app[1].scheduler : Schedule next transmission attempt at: 427.879929651ms
0.360936174214 TestStationaryWorld.misc[0].app[1].app : 14 stay-in-cell (prio touch): [1, 9] Beacon[id:14, SeqNo.:7|8, rxTime: 360.936174214ms, pos.:(5, 2, 1.3) m] Entry{1, 0.309, 0.309346315325, 14, rsd[1]}
0.360936174214 TestStationaryWorld.misc[0].app[1].app : 14 stay-in-cell: [1, 9] Beacon[id:14, SeqNo.:7|8, rxTime: 360.936174214ms, pos.:(5, 2, 1.3) m] Entry{1, 0.36, 0.360936174214, 14, rsd[1]}
0.391076836549 TestStationaryWorld.misc[0].app[1].app : 14 stay-in-cell (prio touch): [1, 9] Beacon[id:14, SeqNo.:8|9, rxTime: 391.076836549ms, pos.:(5, 2, 1.3) m] Entry{1, 0.36, 0.360936174214, 14, rsd[1]}
0.391076836549 TestStationaryWorld.misc[0].app[1].app : 14 stay-in-cell: [1, 9] Beacon[id:14, SeqNo.:8|9, rxTime: 391.076836549ms, pos.:(5, 2, 1.3) m] Entry{1, 0.391, 0.391076836549, 14, rsd[1]}
0.427879929651 TestStationaryWorld.misc[0].app[1].scheduler : Prio interval: (T_det: 100ms, T_rnd: 86.93085178ms, ts: 340.949077871ms, avg_pkt_size: 55 b, pmember: 1, lastTxInterval: 112.250339077ms)
0.427879929651 TestStationaryWorld.misc[0].app[1].scheduler : Current interval: (T_det: 100ms, T_rnd: 47.453197906ms, ts: 427.879929651ms, avg_pkt_size: 71 b, pmember: 1, lastTxInterval: 112.250339077ms)
0.427879929651 TestStationaryWorld.misc[0].app[1].scheduler : Transmit now
0.427879929651 TestStationaryWorld.misc[0].app[1].scheduler :  schedule data quota 200000000 B
0.427879929651 TestStationaryWorld.misc[0].app[1].scheduler :  consumed 40 B from 200000000 B scheduled
0.427879929651 TestStationaryWorld.misc[0].app[1].scheduler : Schedule next transmission attempt at: 475.333127557ms
0.437960409421 TestStationaryWorld.misc[0].app[1].app : 14 stay-in-cell (prio touch): [1, 9] Beacon[id:14, SeqNo.:9|10, rxTime: 437.960409421ms, pos.:(5, 2, 1.3) m] Entry{1, 0.391, 0.391076836549, 14, rsd[1]}
0.437960409421 TestStationaryWorld.misc[0].app[1].app : 14 stay-in-cell: [1, 9] Beacon[id:14, SeqNo.:9|10, rxTime: 437.960409421ms, pos.:(5, 2, 1.3) m] Entry{1, 0.437, 0.437960409421, 14, rsd[1]}
0.475333127557 TestStationaryWorld.misc[0].app[1].scheduler : Prio interval: (T_det: 100ms, T_rnd: 47.453197906ms, ts: 427.879929651ms, avg_pkt_size: 71 b, pmember: 1, lastTxInterval: 86.93085178ms)
0.475333127557 TestStationaryWorld.misc[0].app[1].scheduler : Current interval: (T_det: 100ms, T_rnd: 80.553847184ms, ts: 475.333127557ms, avg_pkt_size: 86 b, pmember: 1, lastTxInterval: 86.93085178ms)
0.475333127557 TestStationaryWorld.misc[0].app[1].scheduler : Delay transmission until 508.433776835ms
0.494341986821 TestStationaryWorld.misc[0].app[1].app : 14 stay-in-cell (prio touch): [1, 9] Beacon[id:14, SeqNo.:10|11, rxTime: 494.341986821ms, pos.:(5, 2, 1.3) m] Entry{1, 0.437, 0.437960409421, 14, rsd[1]}
0.494341986821 TestStationaryWorld.misc[0].app[1].app : 14 stay-in-cell: [1, 9] Beacon[id:14, SeqNo.:10|11, rxTime: 494.341986821ms, pos.:(5, 2, 1.3) m] Entry{1, 0.494, 0.494341986821, 14, rsd[1]}





%contains: stdout
<!> Simulation time limit reached -- at t=0.5s
