%description:
DcDMap sends data after neighborhood table is updated. 

%file: package.ned 
// 
// empty: no namespace
//

%inifile: omnetpp.ini
[General]
network = crownet.test.omnetpp.lib.TestStationaryWorld
ned-path = ../../lib
include ../lib/default_testConfig.ini
**.vector-recording = true
**.scalar-recording = true
**.routingRecorder.enabled = false

[Config final]
extends = enb_count_n2, stationary_n8_enb2, m7_handover, _default, D2D_General, RsdNeighborhoodCount,
*.misc[0].app[*].app.cmdenv-log-level = debug
*.misc[0].app[*].scheduler.cmdenv-log-level = debug
**.cmdenv-log-level = off
sim-time-limit= 1800ms

%postrun-command: grep -E "^.*TestStationaryWorld\.misc\[0\].app\[1\].app.*RSD" test.out > test1.out

%contains: test1.out
0.032951474056 TestStationaryWorld.misc[0].app[1].app : 15 in RSD 1 with neighborhood estimate:0
0.037604907201 TestStationaryWorld.misc[0].app[1].app : 15 in RSD 1 with neighborhood estimate:0
0.060792224986 TestStationaryWorld.misc[0].app[1].app : 15 in RSD 1 with neighborhood estimate:2
0.069192254569 TestStationaryWorld.misc[0].app[1].app : 15 in RSD 1 with neighborhood estimate:4
0.106984049234 TestStationaryWorld.misc[0].app[1].app : 15 in RSD 1 with neighborhood estimate:5
0.112582996733 TestStationaryWorld.misc[0].app[1].app : 15 in RSD 1 with neighborhood estimate:5
0.172610174736 TestStationaryWorld.misc[0].app[1].app : 15 in RSD 1 with neighborhood estimate:5
0.212124272115 TestStationaryWorld.misc[0].app[1].app : 15 in RSD 1 with neighborhood estimate:5
0.215542988287 TestStationaryWorld.misc[0].app[1].app : 15 in RSD 1 with neighborhood estimate:5
0.270513774234 TestStationaryWorld.misc[0].app[1].app : 15 in RSD 1 with neighborhood estimate:5
0.29195968248 TestStationaryWorld.misc[0].app[1].app : 15 in RSD 1 with neighborhood estimate:5
0.294508812179 TestStationaryWorld.misc[0].app[1].app : 15 in RSD 1 with neighborhood estimate:5
0.370635487035 TestStationaryWorld.misc[0].app[1].app : 15 in RSD 1 with neighborhood estimate:5
0.389026632273 TestStationaryWorld.misc[0].app[1].app : 15 in RSD 1 with neighborhood estimate:5
0.424412214366 TestStationaryWorld.misc[0].app[1].app : 15 in RSD 1 with neighborhood estimate:5
0.431329832986 TestStationaryWorld.misc[0].app[1].app : 15 in RSD 1 with neighborhood estimate:5
0.461952781848 TestStationaryWorld.misc[0].app[1].app : 15 in RSD 1 with neighborhood estimate:5
0.48874189869 TestStationaryWorld.misc[0].app[1].app : 15 in RSD 1 with neighborhood estimate:5
0.51456268715 TestStationaryWorld.misc[0].app[1].app : 15 in RSD 1 with neighborhood estimate:5
0.541272054508 TestStationaryWorld.misc[0].app[1].app : 15 in RSD 1 with neighborhood estimate:5
0.606692909135 TestStationaryWorld.misc[0].app[1].app : 15 in RSD 1 with neighborhood estimate:5
0.607463195592 TestStationaryWorld.misc[0].app[1].app : 15 in RSD 1 with neighborhood estimate:5
0.703405755288 TestStationaryWorld.misc[0].app[1].app : 15 in RSD 1 with neighborhood estimate:5
0.725644942658 TestStationaryWorld.misc[0].app[1].app : 15 in RSD 1 with neighborhood estimate:5
0.795054498474 TestStationaryWorld.misc[0].app[1].app : 15 in RSD 1 with neighborhood estimate:5
0.878299891044 TestStationaryWorld.misc[0].app[1].app : 15 in RSD 1 with neighborhood estimate:5
0.90070936668 TestStationaryWorld.misc[0].app[1].app : 15 in RSD 1 with neighborhood estimate:5
0.90310356638 TestStationaryWorld.misc[0].app[1].app : 15 in RSD 1 with neighborhood estimate:5
0.959989308799 TestStationaryWorld.misc[0].app[1].app : 15 in RSD 1 with neighborhood estimate:5
0.974936900823 TestStationaryWorld.misc[0].app[1].app : 15 in RSD 1 with neighborhood estimate:5
1.011935068372 TestStationaryWorld.misc[0].app[1].app : 15 in RSD 1 with neighborhood estimate:5
1.02300937033 TestStationaryWorld.misc[0].app[1].app : 15 in RSD 1 with neighborhood estimate:5
1.057448149176 TestStationaryWorld.misc[0].app[1].app : 15 in RSD 1 with neighborhood estimate:5
1.072470315086 TestStationaryWorld.misc[0].app[1].app : 15 in RSD 1 with neighborhood estimate:5
1.088485200881 TestStationaryWorld.misc[0].app[1].app : 15 in RSD 1 with neighborhood estimate:5
1.120220720957 TestStationaryWorld.misc[0].app[1].app : 15 in RSD 1 with neighborhood estimate:5
1.167751651119 TestStationaryWorld.misc[0].app[1].app : 15 in RSD 1 with neighborhood estimate:5
1.204364637368 TestStationaryWorld.misc[0].app[1].app : 15 in RSD 1 with neighborhood estimate:5
1.222818806713 TestStationaryWorld.misc[0].app[1].app : 15 in RSD 1 with neighborhood estimate:5
1.232395344835 TestStationaryWorld.misc[0].app[1].app : 15 in RSD 1 with neighborhood estimate:5
1.325647139369 TestStationaryWorld.misc[0].app[1].app : 15 in RSD 1 with neighborhood estimate:6
1.362995584622 TestStationaryWorld.misc[0].app[1].app : 15 in RSD 1 with neighborhood estimate:6
1.40227959561 TestStationaryWorld.misc[0].app[1].app : 15 in RSD 1 with neighborhood estimate:6
1.428513305158 TestStationaryWorld.misc[0].app[1].app : 15 in RSD 1 with neighborhood estimate:6
1.483551517516 TestStationaryWorld.misc[0].app[1].app : 15 in RSD 1 with neighborhood estimate:6
1.51214517066 TestStationaryWorld.misc[0].app[1].app : 15 in RSD 1 with neighborhood estimate:6
1.515647426939 TestStationaryWorld.misc[0].app[1].app : 15 in RSD 1 with neighborhood estimate:6
1.528595885344 TestStationaryWorld.misc[0].app[1].app : 15 in RSD 1 with neighborhood estimate:6
1.536495495804 TestStationaryWorld.misc[0].app[1].app : 15 in RSD 1 with neighborhood estimate:6
1.596819725121 TestStationaryWorld.misc[0].app[1].app : 15 in RSD 1 with neighborhood estimate:6
1.637030267102 TestStationaryWorld.misc[0].app[1].app : 15 in RSD 1 with neighborhood estimate:6
1.63891614011 TestStationaryWorld.misc[0].app[1].app : 15 in RSD 1 with neighborhood estimate:6
1.700631418139 TestStationaryWorld.misc[0].app[1].app : 15 in RSD 1 with neighborhood estimate:6
1.735290222033 TestStationaryWorld.misc[0].app[1].app : 15 in RSD 1 with neighborhood estimate:6
1.751269954767 TestStationaryWorld.misc[0].app[1].app : 15 in RSD 1 with neighborhood estimate:6

%contains: stdout
<!> Simulation time limit reached -- at t=1.8s