%description:
DcDMap sends data after neighborhood table is updated. 

%file: package.ned 
// 
// empty: no namespace
//

%inifile: omnetpp.ini
[General]
network = crownet.test.omnetpp.lib.TestStationaryWorld
sim-time-limit= 5s
ned-path = ../../lib
include ../lib/default_testConfig.ini
**.vector-recording = true
**.scalar-recording = true
**.routingRecorder.enabled = false

[Config final]
extends = enb_count_n2, stationary_n8_enb2, m7_handover, _default, D2D_General, FullNeighborhoodCount,
*.misc[0].app[*].app.cmdenv-log-level = debug
*.misc[0].app[*].scheduler.cmdenv-log-level = debug
**.cmdenv-log-level = off
sim-time-limit= 2500ms

%postrun-command: grep -E "^*TestStationaryWorld\.misc\[0\].app\[1\].app.*RSD" test.out > test1.out

%contains: test1.out
0.003486473831 TestStationaryWorld.misc[0].app[1].app : 15 in RSD 1 with neighborhood estimate:0
0.012125361546 TestStationaryWorld.misc[0].app[1].app : 15 in RSD 1 with neighborhood estimate:0
0.049801865546 TestStationaryWorld.misc[0].app[1].app : 15 in RSD 1 with neighborhood estimate:0
0.049801865546 TestStationaryWorld.misc[0].app[1].app : 15 in RSD 1 with neighborhood estimate:0
0.074536968836 TestStationaryWorld.misc[0].app[1].app : 15 in RSD 1 with neighborhood estimate:3
0.075092098081 TestStationaryWorld.misc[0].app[1].app : 15 in RSD 1 with neighborhood estimate:3
0.075717689469 TestStationaryWorld.misc[0].app[1].app : 15 in RSD 1 with neighborhood estimate:3
0.075717689469 TestStationaryWorld.misc[0].app[1].app : 15 in RSD 1 with neighborhood estimate:3
0.149838730166 TestStationaryWorld.misc[0].app[1].app : 15 in RSD 1 with neighborhood estimate:5
0.150726105085 TestStationaryWorld.misc[0].app[1].app : 15 in RSD 1 with neighborhood estimate:5
0.150726105085 TestStationaryWorld.misc[0].app[1].app : 15 in RSD 1 with neighborhood estimate:5
0.152573719489 TestStationaryWorld.misc[0].app[1].app : 15 in RSD 1 with neighborhood estimate:5
0.224606283671 TestStationaryWorld.misc[0].app[1].app : 15 in RSD 1 with neighborhood estimate:8
0.226490477375 TestStationaryWorld.misc[0].app[1].app : 15 in RSD 1 with neighborhood estimate:8
0.226490477375 TestStationaryWorld.misc[0].app[1].app : 15 in RSD 1 with neighborhood estimate:8
0.227536731116 TestStationaryWorld.misc[0].app[1].app : 15 in RSD 1 with neighborhood estimate:8
0.250693357692 TestStationaryWorld.misc[0].app[1].app : 15 in RSD 1 with neighborhood estimate:8
0.250876327314 TestStationaryWorld.misc[0].app[1].app : 15 in RSD 1 with neighborhood estimate:8
0.250876327314 TestStationaryWorld.misc[0].app[1].app : 15 in RSD 1 with neighborhood estimate:8
0.258051220044 TestStationaryWorld.misc[0].app[1].app : 15 in RSD 1 with neighborhood estimate:8
0.351507562487 TestStationaryWorld.misc[0].app[1].app : 15 in RSD 1 with neighborhood estimate:8
0.351507562487 TestStationaryWorld.misc[0].app[1].app : 15 in RSD 1 with neighborhood estimate:8
0.366703854778 TestStationaryWorld.misc[0].app[1].app : 15 in RSD 1 with neighborhood estimate:8
0.376488828891 TestStationaryWorld.misc[0].app[1].app : 15 in RSD 1 with neighborhood estimate:8
0.376488828891 TestStationaryWorld.misc[0].app[1].app : 15 in RSD 1 with neighborhood estimate:8
0.378353747251 TestStationaryWorld.misc[0].app[1].app : 15 in RSD 1 with neighborhood estimate:8
0.452356680349 TestStationaryWorld.misc[0].app[1].app : 15 in RSD 1 with neighborhood estimate:8
0.452356680349 TestStationaryWorld.misc[0].app[1].app : 15 in RSD 1 with neighborhood estimate:8
0.466372260116 TestStationaryWorld.misc[0].app[1].app : 15 in RSD 1 with neighborhood estimate:8
0.526975351608 TestStationaryWorld.misc[0].app[1].app : 15 in RSD 1 with neighborhood estimate:8
0.526975351608 TestStationaryWorld.misc[0].app[1].app : 15 in RSD 1 with neighborhood estimate:8
0.52932353176 TestStationaryWorld.misc[0].app[1].app : 15 in RSD 1 with neighborhood estimate:8
0.551517093663 TestStationaryWorld.misc[0].app[1].app : 15 in RSD 1 with neighborhood estimate:8
0.552120628512 TestStationaryWorld.misc[0].app[1].app : 15 in RSD 1 with neighborhood estimate:8
0.552120628512 TestStationaryWorld.misc[0].app[1].app : 15 in RSD 1 with neighborhood estimate:8
0.569324413427 TestStationaryWorld.misc[0].app[1].app : 15 in RSD 1 with neighborhood estimate:8
0.652297032075 TestStationaryWorld.misc[0].app[1].app : 15 in RSD 1 with neighborhood estimate:8
0.652474930293 TestStationaryWorld.misc[0].app[1].app : 15 in RSD 1 with neighborhood estimate:8
0.652474930293 TestStationaryWorld.misc[0].app[1].app : 15 in RSD 1 with neighborhood estimate:8
0.663470669782 TestStationaryWorld.misc[0].app[1].app : 15 in RSD 1 with neighborhood estimate:8
0.678218548269 TestStationaryWorld.misc[0].app[1].app : 15 in RSD 1 with neighborhood estimate:8
0.678218548269 TestStationaryWorld.misc[0].app[1].app : 15 in RSD 1 with neighborhood estimate:8
0.681845669015 TestStationaryWorld.misc[0].app[1].app : 15 in RSD 1 with neighborhood estimate:8
0.753474858328 TestStationaryWorld.misc[0].app[1].app : 15 in RSD 1 with neighborhood estimate:8
0.753474858328 TestStationaryWorld.misc[0].app[1].app : 15 in RSD 1 with neighborhood estimate:8
0.777709483709 TestStationaryWorld.misc[0].app[1].app : 15 in RSD 1 with neighborhood estimate:8
0.827518062184 TestStationaryWorld.misc[0].app[1].app : 15 in RSD 1 with neighborhood estimate:8
0.828945362969 TestStationaryWorld.misc[0].app[1].app : 15 in RSD 1 with neighborhood estimate:8
0.828945362969 TestStationaryWorld.misc[0].app[1].app : 15 in RSD 1 with neighborhood estimate:8
0.831511028733 TestStationaryWorld.misc[0].app[1].app : 15 in RSD 1 with neighborhood estimate:8
0.854399199874 TestStationaryWorld.misc[0].app[1].app : 15 in RSD 1 with neighborhood estimate:8
0.854399199874 TestStationaryWorld.misc[0].app[1].app : 15 in RSD 1 with neighborhood estimate:8
0.871135348737 TestStationaryWorld.misc[0].app[1].app : 15 in RSD 1 with neighborhood estimate:8
0.954029502872 TestStationaryWorld.misc[0].app[1].app : 15 in RSD 1 with neighborhood estimate:8
0.954404012354 TestStationaryWorld.misc[0].app[1].app : 15 in RSD 1 with neighborhood estimate:8
0.954404012354 TestStationaryWorld.misc[0].app[1].app : 15 in RSD 1 with neighborhood estimate:8
0.964366512218 TestStationaryWorld.misc[0].app[1].app : 15 in RSD 1 with neighborhood estimate:8
0.978930651949 TestStationaryWorld.misc[0].app[1].app : 15 in RSD 1 with neighborhood estimate:8
0.978930651949 TestStationaryWorld.misc[0].app[1].app : 15 in RSD 1 with neighborhood estimate:8
0.983307399607 TestStationaryWorld.misc[0].app[1].app : 15 in RSD 1 with neighborhood estimate:8
1.055011611004 TestStationaryWorld.misc[0].app[1].app : 15 in RSD 1 with neighborhood estimate:8
1.055011611004 TestStationaryWorld.misc[0].app[1].app : 15 in RSD 1 with neighborhood estimate:8
1.077365539904 TestStationaryWorld.misc[0].app[1].app : 15 in RSD 1 with neighborhood estimate:8
1.127919582624 TestStationaryWorld.misc[0].app[1].app : 15 in RSD 1 with neighborhood estimate:8
1.13016360199 TestStationaryWorld.misc[0].app[1].app : 15 in RSD 1 with neighborhood estimate:8
1.13016360199 TestStationaryWorld.misc[0].app[1].app : 15 in RSD 1 with neighborhood estimate:8
1.132789471051 TestStationaryWorld.misc[0].app[1].app : 15 in RSD 1 with neighborhood estimate:8
1.154356229665 TestStationaryWorld.misc[0].app[1].app : 15 in RSD 1 with neighborhood estimate:8
1.154572229477 TestStationaryWorld.misc[0].app[1].app : 15 in RSD 1 with neighborhood estimate:8
1.154572229477 TestStationaryWorld.misc[0].app[1].app : 15 in RSD 1 with neighborhood estimate:8
1.173161160334 TestStationaryWorld.misc[0].app[1].app : 15 in RSD 1 with neighborhood estimate:8
1.254158991253 TestStationaryWorld.misc[0].app[1].app : 15 in RSD 1 with neighborhood estimate:8
1.254746542503 TestStationaryWorld.misc[0].app[1].app : 15 in RSD 1 with neighborhood estimate:8
1.254746542503 TestStationaryWorld.misc[0].app[1].app : 15 in RSD 1 with neighborhood estimate:8
1.264348082956 TestStationaryWorld.misc[0].app[1].app : 15 in RSD 1 with neighborhood estimate:8
1.279914503585 TestStationaryWorld.misc[0].app[1].app : 15 in RSD 1 with neighborhood estimate:8
1.280377060892 TestStationaryWorld.misc[0].app[1].app : 15 in RSD 1 with neighborhood estimate:8
1.281407684876 TestStationaryWorld.misc[0].app[1].app : 15 in RSD 1 with neighborhood estimate:8
1.281528566149 TestStationaryWorld.misc[0].app[1].app : 15 in RSD 1 with neighborhood estimate:8
1.281528566149 TestStationaryWorld.misc[0].app[1].app : 15 in RSD 1 with neighborhood estimate:8
1.28595881311 TestStationaryWorld.misc[0].app[1].app : 15 in RSD 1 with neighborhood estimate:8
1.354000733198 TestStationaryWorld.misc[0].app[1].app : 15 in RSD 1 with neighborhood estimate:8
1.354933786811 TestStationaryWorld.misc[0].app[1].app : 15 in RSD 1 with neighborhood estimate:8
1.354933786811 TestStationaryWorld.misc[0].app[1].app : 15 in RSD 1 with neighborhood estimate:8
1.382509074956 TestStationaryWorld.misc[0].app[1].app : 15 in RSD 1 with neighborhood estimate:8
1.432689546058 TestStationaryWorld.misc[0].app[1].app : 15 in RSD 1 with neighborhood estimate:8
1.432841029507 TestStationaryWorld.misc[0].app[1].app : 15 in RSD 1 with neighborhood estimate:8
1.432841029507 TestStationaryWorld.misc[0].app[1].app : 15 in RSD 1 with neighborhood estimate:8
1.439723152443 TestStationaryWorld.misc[0].app[1].app : 15 in RSD 1 with neighborhood estimate:8
1.455569243312 TestStationaryWorld.misc[0].app[1].app : 15 in RSD 1 with neighborhood estimate:8
1.455569243312 TestStationaryWorld.misc[0].app[1].app : 15 in RSD 1 with neighborhood estimate:8
1.478362726725 TestStationaryWorld.misc[0].app[1].app : 15 in RSD 1 with neighborhood estimate:8
1.554611282992 TestStationaryWorld.misc[0].app[1].app : 15 in RSD 1 with neighborhood estimate:8
1.555850605718 TestStationaryWorld.misc[0].app[1].app : 15 in RSD 1 with neighborhood estimate:8
1.555850605718 TestStationaryWorld.misc[0].app[1].app : 15 in RSD 1 with neighborhood estimate:8
1.5725883234 TestStationaryWorld.misc[0].app[1].app : 15 in RSD 1 with neighborhood estimate:8
1.583313211505 TestStationaryWorld.misc[0].app[1].app : 15 in RSD 1 with neighborhood estimate:8
1.583313211505 TestStationaryWorld.misc[0].app[1].app : 15 in RSD 1 with neighborhood estimate:8
1.59193146525 TestStationaryWorld.misc[0].app[1].app : 15 in RSD 1 with neighborhood estimate:8
1.656434904274 TestStationaryWorld.misc[0].app[1].app : 15 in RSD 1 with neighborhood estimate:8
1.656460938501 TestStationaryWorld.misc[0].app[1].app : 15 in RSD 1 with neighborhood estimate:8
1.656460938501 TestStationaryWorld.misc[0].app[1].app : 15 in RSD 1 with neighborhood estimate:8
1.669157809652 TestStationaryWorld.misc[0].app[1].app : 15 in RSD 1 with neighborhood estimate:8
1.73452976044 TestStationaryWorld.misc[0].app[1].app : 15 in RSD 1 with neighborhood estimate:8
1.73452976044 TestStationaryWorld.misc[0].app[1].app : 15 in RSD 1 with neighborhood estimate:8
1.741796797793 TestStationaryWorld.misc[0].app[1].app : 15 in RSD 1 with neighborhood estimate:8
1.756054644236 TestStationaryWorld.misc[0].app[1].app : 15 in RSD 1 with neighborhood estimate:8
1.756808122635 TestStationaryWorld.misc[0].app[1].app : 15 in RSD 1 with neighborhood estimate:8
1.756808122635 TestStationaryWorld.misc[0].app[1].app : 15 in RSD 1 with neighborhood estimate:8
1.77250513417 TestStationaryWorld.misc[0].app[1].app : 15 in RSD 1 with neighborhood estimate:8
1.855990262072 TestStationaryWorld.misc[0].app[1].app : 15 in RSD 1 with neighborhood estimate:8
1.856507547005 TestStationaryWorld.misc[0].app[1].app : 15 in RSD 1 with neighborhood estimate:8
1.856507547005 TestStationaryWorld.misc[0].app[1].app : 15 in RSD 1 with neighborhood estimate:8
1.873109373233 TestStationaryWorld.misc[0].app[1].app : 15 in RSD 1 with neighborhood estimate:8
1.885837071517 TestStationaryWorld.misc[0].app[1].app : 15 in RSD 1 with neighborhood estimate:8
1.885837071517 TestStationaryWorld.misc[0].app[1].app : 15 in RSD 1 with neighborhood estimate:8
1.890057516575 TestStationaryWorld.misc[0].app[1].app : 15 in RSD 1 with neighborhood estimate:8
1.955977243839 TestStationaryWorld.misc[0].app[1].app : 15 in RSD 1 with neighborhood estimate:8
1.956144891712 TestStationaryWorld.misc[0].app[1].app : 15 in RSD 1 with neighborhood estimate:8
1.956813480986 TestStationaryWorld.misc[0].app[1].app : 15 in RSD 1 with neighborhood estimate:8
1.956813480986 TestStationaryWorld.misc[0].app[1].app : 15 in RSD 1 with neighborhood estimate:8
1.982427289534 TestStationaryWorld.misc[0].app[1].app : 15 in RSD 1 with neighborhood estimate:8
2.034497870691 TestStationaryWorld.misc[0].app[1].app : 15 in RSD 1 with neighborhood estimate:8
2.03677424868 TestStationaryWorld.misc[0].app[1].app : 15 in RSD 1 with neighborhood estimate:8
2.03677424868 TestStationaryWorld.misc[0].app[1].app : 15 in RSD 1 with neighborhood estimate:8
2.042514388542 TestStationaryWorld.misc[0].app[1].app : 15 in RSD 1 with neighborhood estimate:8
2.056842362805 TestStationaryWorld.misc[0].app[1].app : 15 in RSD 1 with neighborhood estimate:8
2.057140151533 TestStationaryWorld.misc[0].app[1].app : 15 in RSD 1 with neighborhood estimate:8
2.057415042203 TestStationaryWorld.misc[0].app[1].app : 15 in RSD 1 with neighborhood estimate:8
2.057622318682 TestStationaryWorld.misc[0].app[1].app : 15 in RSD 1 with neighborhood estimate:8
2.057622318682 TestStationaryWorld.misc[0].app[1].app : 15 in RSD 1 with neighborhood estimate:8
2.08544115201 TestStationaryWorld.misc[0].app[1].app : 15 in RSD 1 with neighborhood estimate:8
2.157907101352 TestStationaryWorld.misc[0].app[1].app : 15 in RSD 1 with neighborhood estimate:8
2.157991752219 TestStationaryWorld.misc[0].app[1].app : 15 in RSD 1 with neighborhood estimate:8
2.157991752219 TestStationaryWorld.misc[0].app[1].app : 15 in RSD 1 with neighborhood estimate:8
2.17949814962 TestStationaryWorld.misc[0].app[1].app : 15 in RSD 1 with neighborhood estimate:8
2.18741917766 TestStationaryWorld.misc[0].app[1].app : 15 in RSD 1 with neighborhood estimate:8
2.18741917766 TestStationaryWorld.misc[0].app[1].app : 15 in RSD 1 with neighborhood estimate:8
2.190784246253 TestStationaryWorld.misc[0].app[1].app : 15 in RSD 1 with neighborhood estimate:8
2.258539496844 TestStationaryWorld.misc[0].app[1].app : 15 in RSD 1 with neighborhood estimate:8
2.258851632527 TestStationaryWorld.misc[0].app[1].app : 15 in RSD 1 with neighborhood estimate:8
2.258851632527 TestStationaryWorld.misc[0].app[1].app : 15 in RSD 1 with neighborhood estimate:8
2.274218683464 TestStationaryWorld.misc[0].app[1].app : 15 in RSD 1 with neighborhood estimate:8
2.337682421911 TestStationaryWorld.misc[0].app[1].app : 15 in RSD 1 with neighborhood estimate:8
2.337682421911 TestStationaryWorld.misc[0].app[1].app : 15 in RSD 1 with neighborhood estimate:8
2.347000771989 TestStationaryWorld.misc[0].app[1].app : 15 in RSD 1 with neighborhood estimate:8
2.358374632297 TestStationaryWorld.misc[0].app[1].app : 15 in RSD 1 with neighborhood estimate:8
2.359026966377 TestStationaryWorld.misc[0].app[1].app : 15 in RSD 1 with neighborhood estimate:8
2.359026966377 TestStationaryWorld.misc[0].app[1].app : 15 in RSD 1 with neighborhood estimate:8
2.377344816602 TestStationaryWorld.misc[0].app[1].app : 15 in RSD 1 with neighborhood estimate:8
2.458092653078 TestStationaryWorld.misc[0].app[1].app : 15 in RSD 1 with neighborhood estimate:8
2.459923567677 TestStationaryWorld.misc[0].app[1].app : 15 in RSD 1 with neighborhood estimate:8
2.459923567677 TestStationaryWorld.misc[0].app[1].app : 15 in RSD 1 with neighborhood estimate:8
2.471292506425 TestStationaryWorld.misc[0].app[1].app : 15 in RSD 1 with neighborhood estimate:8
2.487159228521 TestStationaryWorld.misc[0].app[1].app : 15 in RSD 1 with neighborhood estimate:8
2.488682982805 TestStationaryWorld.misc[0].app[1].app : 15 in RSD 1 with neighborhood estimate:8
2.488682982805 TestStationaryWorld.misc[0].app[1].app : 15 in RSD 1 with neighborhood estimate:8
2.497890597537 TestStationaryWorld.misc[0].app[1].app : 15 in RSD 1 with neighborhood estimate:8



%contains: stdout
<!> Simulation time limit reached -- at t=2.5s