%description:
DcDMap sends data after neighborhood table is updated. 

%file: package.ned 
// 
// empty: no namespace
//

%inifile: omnetpp.ini
[General]
network = crownet.test.omnetpp.lib.TestStationaryWorld
sim-time-limit= 5s
ned-path = ../../lib
include ../lib/default_testConfig.ini
**.vector-recording = true
**.scalar-recording = true
**.routingRecorder.enabled = false

[Config final]
extends = enb_count_n2, stationary_n8_enb2, m7_handover, _default, D2D_General, FullNeighborhoodCount,
*.misc[0].app[*].app.cmdenv-log-level = debug
*.misc[0].app[*].scheduler.cmdenv-log-level = debug
**.cmdenv-log-level = off
sim-time-limit= 2500ms

%postrun-command: grep -E "^*TestStationaryWorld\.misc\[0\].app\[1\].app.*RSD" test.out > test1.out

%contains: test1.out
0.007780882144 TestStationaryWorld.misc[0].app[1].app : 15 in RSD 1 with neighborhood estimate:0
0.009840845893 TestStationaryWorld.misc[0].app[1].app : 15 in RSD 1 with neighborhood estimate:0
0.049926691413 TestStationaryWorld.misc[0].app[1].app : 15 in RSD 1 with neighborhood estimate:0
0.050301058716 TestStationaryWorld.misc[0].app[1].app : 15 in RSD 1 with neighborhood estimate:0
0.050301058716 TestStationaryWorld.misc[0].app[1].app : 15 in RSD 1 with neighborhood estimate:0
0.074748373367 TestStationaryWorld.misc[0].app[1].app : 15 in RSD 1 with neighborhood estimate:2
0.074869344925 TestStationaryWorld.misc[0].app[1].app : 15 in RSD 1 with neighborhood estimate:2
0.075133647537 TestStationaryWorld.misc[0].app[1].app : 15 in RSD 1 with neighborhood estimate:2
0.075133647537 TestStationaryWorld.misc[0].app[1].app : 15 in RSD 1 with neighborhood estimate:2
0.149788940351 TestStationaryWorld.misc[0].app[1].app : 15 in RSD 1 with neighborhood estimate:3
0.150937604267 TestStationaryWorld.misc[0].app[1].app : 15 in RSD 1 with neighborhood estimate:3
0.150937604267 TestStationaryWorld.misc[0].app[1].app : 15 in RSD 1 with neighborhood estimate:3
0.152805365167 TestStationaryWorld.misc[0].app[1].app : 15 in RSD 1 with neighborhood estimate:3
0.224767576954 TestStationaryWorld.misc[0].app[1].app : 15 in RSD 1 with neighborhood estimate:3
0.226486326859 TestStationaryWorld.misc[0].app[1].app : 15 in RSD 1 with neighborhood estimate:3
0.226486326859 TestStationaryWorld.misc[0].app[1].app : 15 in RSD 1 with neighborhood estimate:3
0.226614403728 TestStationaryWorld.misc[0].app[1].app : 15 in RSD 1 with neighborhood estimate:3
0.250325689372 TestStationaryWorld.misc[0].app[1].app : 15 in RSD 1 with neighborhood estimate:5
0.251272722293 TestStationaryWorld.misc[0].app[1].app : 15 in RSD 1 with neighborhood estimate:5
0.251272722293 TestStationaryWorld.misc[0].app[1].app : 15 in RSD 1 with neighborhood estimate:5
0.25648171123 TestStationaryWorld.misc[0].app[1].app : 15 in RSD 1 with neighborhood estimate:5
0.351879731287 TestStationaryWorld.misc[0].app[1].app : 15 in RSD 1 with neighborhood estimate:4
0.351879731287 TestStationaryWorld.misc[0].app[1].app : 15 in RSD 1 with neighborhood estimate:4
0.357775770091 TestStationaryWorld.misc[0].app[1].app : 15 in RSD 1 with neighborhood estimate:4
0.376247104873 TestStationaryWorld.misc[0].app[1].app : 15 in RSD 1 with neighborhood estimate:5
0.376478691385 TestStationaryWorld.misc[0].app[1].app : 15 in RSD 1 with neighborhood estimate:5
0.376977927043 TestStationaryWorld.misc[0].app[1].app : 15 in RSD 1 with neighborhood estimate:5
0.376977927043 TestStationaryWorld.misc[0].app[1].app : 15 in RSD 1 with neighborhood estimate:5
0.377453629593 TestStationaryWorld.misc[0].app[1].app : 15 in RSD 1 with neighborhood estimate:5
0.45231470795 TestStationaryWorld.misc[0].app[1].app : 15 in RSD 1 with neighborhood estimate:5
0.45231470795 TestStationaryWorld.misc[0].app[1].app : 15 in RSD 1 with neighborhood estimate:5
0.457920444245 TestStationaryWorld.misc[0].app[1].app : 15 in RSD 1 with neighborhood estimate:5
0.526988420298 TestStationaryWorld.misc[0].app[1].app : 15 in RSD 1 with neighborhood estimate:5
0.527327995715 TestStationaryWorld.misc[0].app[1].app : 15 in RSD 1 with neighborhood estimate:5
0.527327995715 TestStationaryWorld.misc[0].app[1].app : 15 in RSD 1 with neighborhood estimate:5
0.528452833333 TestStationaryWorld.misc[0].app[1].app : 15 in RSD 1 with neighborhood estimate:5
0.552862452575 TestStationaryWorld.misc[0].app[1].app : 15 in RSD 1 with neighborhood estimate:5
0.553083119788 TestStationaryWorld.misc[0].app[1].app : 15 in RSD 1 with neighborhood estimate:5
0.553083119788 TestStationaryWorld.misc[0].app[1].app : 15 in RSD 1 with neighborhood estimate:5
0.564324978175 TestStationaryWorld.misc[0].app[1].app : 15 in RSD 1 with neighborhood estimate:5
0.653759503626 TestStationaryWorld.misc[0].app[1].app : 15 in RSD 1 with neighborhood estimate:5
0.653759503626 TestStationaryWorld.misc[0].app[1].app : 15 in RSD 1 with neighborhood estimate:5
0.666488210946 TestStationaryWorld.misc[0].app[1].app : 15 in RSD 1 with neighborhood estimate:5
0.676848496524 TestStationaryWorld.misc[0].app[1].app : 15 in RSD 1 with neighborhood estimate:5
0.677022157773 TestStationaryWorld.misc[0].app[1].app : 15 in RSD 1 with neighborhood estimate:5
0.678409405371 TestStationaryWorld.misc[0].app[1].app : 15 in RSD 1 with neighborhood estimate:5
0.678650384911 TestStationaryWorld.misc[0].app[1].app : 15 in RSD 1 with neighborhood estimate:5
0.678650384911 TestStationaryWorld.misc[0].app[1].app : 15 in RSD 1 with neighborhood estimate:5
0.68016370063 TestStationaryWorld.misc[0].app[1].app : 15 in RSD 1 with neighborhood estimate:5
0.753089033425 TestStationaryWorld.misc[0].app[1].app : 15 in RSD 1 with neighborhood estimate:5
0.753882753033 TestStationaryWorld.misc[0].app[1].app : 15 in RSD 1 with neighborhood estimate:5
0.753882753033 TestStationaryWorld.misc[0].app[1].app : 15 in RSD 1 with neighborhood estimate:5
0.761370108553 TestStationaryWorld.misc[0].app[1].app : 15 in RSD 1 with neighborhood estimate:5
0.828702870351 TestStationaryWorld.misc[0].app[1].app : 15 in RSD 1 with neighborhood estimate:5
0.828702870351 TestStationaryWorld.misc[0].app[1].app : 15 in RSD 1 with neighborhood estimate:5
0.829618216933 TestStationaryWorld.misc[0].app[1].app : 15 in RSD 1 with neighborhood estimate:5
0.854007229351 TestStationaryWorld.misc[0].app[1].app : 15 in RSD 1 with neighborhood estimate:5
0.854423322184 TestStationaryWorld.misc[0].app[1].app : 15 in RSD 1 with neighborhood estimate:5
0.854423322184 TestStationaryWorld.misc[0].app[1].app : 15 in RSD 1 with neighborhood estimate:5
0.863442717083 TestStationaryWorld.misc[0].app[1].app : 15 in RSD 1 with neighborhood estimate:5
0.955279655786 TestStationaryWorld.misc[0].app[1].app : 15 in RSD 1 with neighborhood estimate:5
0.955279655786 TestStationaryWorld.misc[0].app[1].app : 15 in RSD 1 with neighborhood estimate:5
0.962933882473 TestStationaryWorld.misc[0].app[1].app : 15 in RSD 1 with neighborhood estimate:5
0.979850937675 TestStationaryWorld.misc[0].app[1].app : 15 in RSD 1 with neighborhood estimate:5
0.979850937675 TestStationaryWorld.misc[0].app[1].app : 15 in RSD 1 with neighborhood estimate:5
0.980773484841 TestStationaryWorld.misc[0].app[1].app : 15 in RSD 1 with neighborhood estimate:5
1.054602279517 TestStationaryWorld.misc[0].app[1].app : 15 in RSD 1 with neighborhood estimate:5
1.055603537046 TestStationaryWorld.misc[0].app[1].app : 15 in RSD 1 with neighborhood estimate:5
1.055603537046 TestStationaryWorld.misc[0].app[1].app : 15 in RSD 1 with neighborhood estimate:5
1.061277233121 TestStationaryWorld.misc[0].app[1].app : 15 in RSD 1 with neighborhood estimate:5
1.130703883777 TestStationaryWorld.misc[0].app[1].app : 15 in RSD 1 with neighborhood estimate:5
1.130703883777 TestStationaryWorld.misc[0].app[1].app : 15 in RSD 1 with neighborhood estimate:5
1.132627044303 TestStationaryWorld.misc[0].app[1].app : 15 in RSD 1 with neighborhood estimate:5
1.15577801666 TestStationaryWorld.misc[0].app[1].app : 15 in RSD 1 with neighborhood estimate:5
1.156306624749 TestStationaryWorld.misc[0].app[1].app : 15 in RSD 1 with neighborhood estimate:5
1.156306624749 TestStationaryWorld.misc[0].app[1].app : 15 in RSD 1 with neighborhood estimate:5
1.162791243356 TestStationaryWorld.misc[0].app[1].app : 15 in RSD 1 with neighborhood estimate:5
1.255611718358 TestStationaryWorld.misc[0].app[1].app : 15 in RSD 1 with neighborhood estimate:5
1.255743893738 TestStationaryWorld.misc[0].app[1].app : 15 in RSD 1 with neighborhood estimate:5
1.255833501248 TestStationaryWorld.misc[0].app[1].app : 15 in RSD 1 with neighborhood estimate:5
1.255833501248 TestStationaryWorld.misc[0].app[1].app : 15 in RSD 1 with neighborhood estimate:5
1.269888672624 TestStationaryWorld.misc[0].app[1].app : 15 in RSD 1 with neighborhood estimate:5
1.28139366295 TestStationaryWorld.misc[0].app[1].app : 15 in RSD 1 with neighborhood estimate:5
1.282127302472 TestStationaryWorld.misc[0].app[1].app : 15 in RSD 1 with neighborhood estimate:5
1.282127302472 TestStationaryWorld.misc[0].app[1].app : 15 in RSD 1 with neighborhood estimate:5
1.284567619347 TestStationaryWorld.misc[0].app[1].app : 15 in RSD 1 with neighborhood estimate:5
1.356505490848 TestStationaryWorld.misc[0].app[1].app : 15 in RSD 1 with neighborhood estimate:5
1.356505490848 TestStationaryWorld.misc[0].app[1].app : 15 in RSD 1 with neighborhood estimate:5
1.363973078744 TestStationaryWorld.misc[0].app[1].app : 15 in RSD 1 with neighborhood estimate:5
1.432854887248 TestStationaryWorld.misc[0].app[1].app : 15 in RSD 1 with neighborhood estimate:5
1.432854887248 TestStationaryWorld.misc[0].app[1].app : 15 in RSD 1 with neighborhood estimate:5
1.435365803032 TestStationaryWorld.misc[0].app[1].app : 15 in RSD 1 with neighborhood estimate:5
1.457363118276 TestStationaryWorld.misc[0].app[1].app : 15 in RSD 1 with neighborhood estimate:5
1.457363118276 TestStationaryWorld.misc[0].app[1].app : 15 in RSD 1 with neighborhood estimate:5
1.47333522542 TestStationaryWorld.misc[0].app[1].app : 15 in RSD 1 with neighborhood estimate:5
1.557116307777 TestStationaryWorld.misc[0].app[1].app : 15 in RSD 1 with neighborhood estimate:5
1.557116307777 TestStationaryWorld.misc[0].app[1].app : 15 in RSD 1 with neighborhood estimate:5
1.567886634224 TestStationaryWorld.misc[0].app[1].app : 15 in RSD 1 with neighborhood estimate:5
1.582408460258 TestStationaryWorld.misc[0].app[1].app : 15 in RSD 1 with neighborhood estimate:5
1.583294224231 TestStationaryWorld.misc[0].app[1].app : 15 in RSD 1 with neighborhood estimate:5
1.583294224231 TestStationaryWorld.misc[0].app[1].app : 15 in RSD 1 with neighborhood estimate:5
1.585443221014 TestStationaryWorld.misc[0].app[1].app : 15 in RSD 1 with neighborhood estimate:5
1.65795250994 TestStationaryWorld.misc[0].app[1].app : 15 in RSD 1 with neighborhood estimate:5
1.658091708582 TestStationaryWorld.misc[0].app[1].app : 15 in RSD 1 with neighborhood estimate:5
1.658091708582 TestStationaryWorld.misc[0].app[1].app : 15 in RSD 1 with neighborhood estimate:5
1.674071362219 TestStationaryWorld.misc[0].app[1].app : 15 in RSD 1 with neighborhood estimate:5
1.734667763023 TestStationaryWorld.misc[0].app[1].app : 15 in RSD 1 with neighborhood estimate:5
1.734667763023 TestStationaryWorld.misc[0].app[1].app : 15 in RSD 1 with neighborhood estimate:5
1.736975932228 TestStationaryWorld.misc[0].app[1].app : 15 in RSD 1 with neighborhood estimate:5
1.757930203212 TestStationaryWorld.misc[0].app[1].app : 15 in RSD 1 with neighborhood estimate:7
1.758498784209 TestStationaryWorld.misc[0].app[1].app : 15 in RSD 1 with neighborhood estimate:7
1.758498784209 TestStationaryWorld.misc[0].app[1].app : 15 in RSD 1 with neighborhood estimate:7
1.779259878076 TestStationaryWorld.misc[0].app[1].app : 15 in RSD 1 with neighborhood estimate:7
1.857539809109 TestStationaryWorld.misc[0].app[1].app : 15 in RSD 1 with neighborhood estimate:7
1.858990413505 TestStationaryWorld.misc[0].app[1].app : 15 in RSD 1 with neighborhood estimate:7
1.859453692618 TestStationaryWorld.misc[0].app[1].app : 15 in RSD 1 with neighborhood estimate:7
1.859453692618 TestStationaryWorld.misc[0].app[1].app : 15 in RSD 1 with neighborhood estimate:7
1.873571002035 TestStationaryWorld.misc[0].app[1].app : 15 in RSD 1 with neighborhood estimate:7
1.88391125644 TestStationaryWorld.misc[0].app[1].app : 15 in RSD 1 with neighborhood estimate:8
1.886080661387 TestStationaryWorld.misc[0].app[1].app : 15 in RSD 1 with neighborhood estimate:8
1.886080661387 TestStationaryWorld.misc[0].app[1].app : 15 in RSD 1 with neighborhood estimate:8
1.89049712774 TestStationaryWorld.misc[0].app[1].app : 15 in RSD 1 with neighborhood estimate:8
1.959902671094 TestStationaryWorld.misc[0].app[1].app : 15 in RSD 1 with neighborhood estimate:8
1.959904292219 TestStationaryWorld.misc[0].app[1].app : 15 in RSD 1 with neighborhood estimate:8
1.959904292219 TestStationaryWorld.misc[0].app[1].app : 15 in RSD 1 with neighborhood estimate:8
1.986663427676 TestStationaryWorld.misc[0].app[1].app : 15 in RSD 1 with neighborhood estimate:8
2.034903779519 TestStationaryWorld.misc[0].app[1].app : 15 in RSD 1 with neighborhood estimate:8
2.037541016426 TestStationaryWorld.misc[0].app[1].app : 15 in RSD 1 with neighborhood estimate:8
2.037541016426 TestStationaryWorld.misc[0].app[1].app : 15 in RSD 1 with neighborhood estimate:8
2.042841923522 TestStationaryWorld.misc[0].app[1].app : 15 in RSD 1 with neighborhood estimate:8
2.060268598413 TestStationaryWorld.misc[0].app[1].app : 15 in RSD 1 with neighborhood estimate:8
2.060796862374 TestStationaryWorld.misc[0].app[1].app : 15 in RSD 1 with neighborhood estimate:8
2.060796862374 TestStationaryWorld.misc[0].app[1].app : 15 in RSD 1 with neighborhood estimate:8
2.076911462802 TestStationaryWorld.misc[0].app[1].app : 15 in RSD 1 with neighborhood estimate:8
2.160686426762 TestStationaryWorld.misc[0].app[1].app : 15 in RSD 1 with neighborhood estimate:8
2.160723629075 TestStationaryWorld.misc[0].app[1].app : 15 in RSD 1 with neighborhood estimate:8
2.161263370751 TestStationaryWorld.misc[0].app[1].app : 15 in RSD 1 with neighborhood estimate:8
2.161369879797 TestStationaryWorld.misc[0].app[1].app : 15 in RSD 1 with neighborhood estimate:8
2.161369879797 TestStationaryWorld.misc[0].app[1].app : 15 in RSD 1 with neighborhood estimate:8
2.183581920149 TestStationaryWorld.misc[0].app[1].app : 15 in RSD 1 with neighborhood estimate:8
2.18713517363 TestStationaryWorld.misc[0].app[1].app : 15 in RSD 1 with neighborhood estimate:8
2.18713517363 TestStationaryWorld.misc[0].app[1].app : 15 in RSD 1 with neighborhood estimate:8
2.191825402692 TestStationaryWorld.misc[0].app[1].app : 15 in RSD 1 with neighborhood estimate:8
2.260869720113 TestStationaryWorld.misc[0].app[1].app : 15 in RSD 1 with neighborhood estimate:8
2.262043737485 TestStationaryWorld.misc[0].app[1].app : 15 in RSD 1 with neighborhood estimate:8
2.262043737485 TestStationaryWorld.misc[0].app[1].app : 15 in RSD 1 with neighborhood estimate:8
2.276612555679 TestStationaryWorld.misc[0].app[1].app : 15 in RSD 1 with neighborhood estimate:8
2.337424711246 TestStationaryWorld.misc[0].app[1].app : 15 in RSD 1 with neighborhood estimate:8
2.338270312639 TestStationaryWorld.misc[0].app[1].app : 15 in RSD 1 with neighborhood estimate:8
2.338270312639 TestStationaryWorld.misc[0].app[1].app : 15 in RSD 1 with neighborhood estimate:8
2.346529943653 TestStationaryWorld.misc[0].app[1].app : 15 in RSD 1 with neighborhood estimate:8
2.36179210687 TestStationaryWorld.misc[0].app[1].app : 15 in RSD 1 with neighborhood estimate:8
2.362469537091 TestStationaryWorld.misc[0].app[1].app : 15 in RSD 1 with neighborhood estimate:8
2.362469537091 TestStationaryWorld.misc[0].app[1].app : 15 in RSD 1 with neighborhood estimate:8
2.382397272078 TestStationaryWorld.misc[0].app[1].app : 15 in RSD 1 with neighborhood estimate:8
2.462801712122 TestStationaryWorld.misc[0].app[1].app : 15 in RSD 1 with neighborhood estimate:8
2.462801712122 TestStationaryWorld.misc[0].app[1].app : 15 in RSD 1 with neighborhood estimate:8
2.482453787962 TestStationaryWorld.misc[0].app[1].app : 15 in RSD 1 with neighborhood estimate:8
2.486826092727 TestStationaryWorld.misc[0].app[1].app : 15 in RSD 1 with neighborhood estimate:8
2.488275647178 TestStationaryWorld.misc[0].app[1].app : 15 in RSD 1 with neighborhood estimate:8
2.488275647178 TestStationaryWorld.misc[0].app[1].app : 15 in RSD 1 with neighborhood estimate:8
2.493705742376 TestStationaryWorld.misc[0].app[1].app : 15 in RSD 1 with neighborhood estimate:8



%contains: stdout
<!> Simulation time limit reached -- at t=2.5s