%description:
DcDMap sends data after neighborhood table is updated. 
Note: If this test fails, check that the CrowNet patch to LtePhyUeD2D.cc in Simu5G is integrated
which implements the separation of resource domains, i.e. guarantees that
D2D packets sent in RSDs other than the own RSD are ignored.

%file: package.ned 
// 
// empty: no namespace
//

%inifile: omnetpp.ini
[General]
network = crownet.test.omnetpp.lib.TestStationaryWorld
ned-path = ../../lib
include ../lib/default_testConfig.ini
**.vector-recording = true
**.scalar-recording = true
**.routingRecorder.enabled = false

[Config final]
extends = enb_count_n2, stationary_n8_enb2, m7_handover, _default, D2D_General, RsdNeighborhoodCount,
*.misc[0].app[*].app.cmdenv-log-level = debug
*.misc[0].app[*].scheduler.cmdenv-log-level = debug
**.appendResourceSharingDomainId = true
**.cmdenv-log-level = off
sim-time-limit= 2500ms

%postrun-command: grep -E "^.*TestStationaryWorld\.misc\[0\].app\[1\].app.*RSD" test.out > test1.out

%contains: test1.out
0.007780882144 TestStationaryWorld.misc[0].app[1].app : 15 in RSD 1 with neighborhood estimate:0
0.009840845893 TestStationaryWorld.misc[0].app[1].app : 15 in RSD 1 with neighborhood estimate:0
0.049926691413 TestStationaryWorld.misc[0].app[1].app : 15 in RSD 1 with neighborhood estimate:0
0.050301058716 TestStationaryWorld.misc[0].app[1].app : 15 in RSD 1 with neighborhood estimate:0
0.050301058716 TestStationaryWorld.misc[0].app[1].app : 15 in RSD 1 with neighborhood estimate:0
0.074748373367 TestStationaryWorld.misc[0].app[1].app : 15 in RSD 1 with neighborhood estimate:2
0.074869344925 TestStationaryWorld.misc[0].app[1].app : 15 in RSD 1 with neighborhood estimate:2
0.075133647537 TestStationaryWorld.misc[0].app[1].app : 15 in RSD 1 with neighborhood estimate:2
0.075133647537 TestStationaryWorld.misc[0].app[1].app : 15 in RSD 1 with neighborhood estimate:2
0.149788940351 TestStationaryWorld.misc[0].app[1].app : 15 in RSD 1 with neighborhood estimate:3
0.150486577867 TestStationaryWorld.misc[0].app[1].app : 15 in RSD 1 with neighborhood estimate:3
0.150486577867 TestStationaryWorld.misc[0].app[1].app : 15 in RSD 1 with neighborhood estimate:3
0.152980197262 TestStationaryWorld.misc[0].app[1].app : 15 in RSD 1 with neighborhood estimate:3
0.224767576954 TestStationaryWorld.misc[0].app[1].app : 15 in RSD 1 with neighborhood estimate:4
0.225311822819 TestStationaryWorld.misc[0].app[1].app : 15 in RSD 1 with neighborhood estimate:4
0.226562338816 TestStationaryWorld.misc[0].app[1].app : 15 in RSD 1 with neighborhood estimate:4
0.226562338816 TestStationaryWorld.misc[0].app[1].app : 15 in RSD 1 with neighborhood estimate:4
0.22674103291 TestStationaryWorld.misc[0].app[1].app : 15 in RSD 1 with neighborhood estimate:4
0.250149782155 TestStationaryWorld.misc[0].app[1].app : 15 in RSD 1 with neighborhood estimate:5
0.250149782155 TestStationaryWorld.misc[0].app[1].app : 15 in RSD 1 with neighborhood estimate:5
0.252875347794 TestStationaryWorld.misc[0].app[1].app : 15 in RSD 1 with neighborhood estimate:5
0.349792311616 TestStationaryWorld.misc[0].app[1].app : 15 in RSD 1 with neighborhood estimate:5
0.350800203288 TestStationaryWorld.misc[0].app[1].app : 15 in RSD 1 with neighborhood estimate:5
0.350800203288 TestStationaryWorld.misc[0].app[1].app : 15 in RSD 1 with neighborhood estimate:5
0.358136360968 TestStationaryWorld.misc[0].app[1].app : 15 in RSD 1 with neighborhood estimate:5
0.376269361097 TestStationaryWorld.misc[0].app[1].app : 15 in RSD 1 with neighborhood estimate:5
0.376269361097 TestStationaryWorld.misc[0].app[1].app : 15 in RSD 1 with neighborhood estimate:5
0.377112697493 TestStationaryWorld.misc[0].app[1].app : 15 in RSD 1 with neighborhood estimate:5
0.450241909398 TestStationaryWorld.misc[0].app[1].app : 15 in RSD 1 with neighborhood estimate:5
0.450241931421 TestStationaryWorld.misc[0].app[1].app : 15 in RSD 1 with neighborhood estimate:5
0.451155148688 TestStationaryWorld.misc[0].app[1].app : 15 in RSD 1 with neighborhood estimate:5
0.451155148688 TestStationaryWorld.misc[0].app[1].app : 15 in RSD 1 with neighborhood estimate:5
0.456544507305 TestStationaryWorld.misc[0].app[1].app : 15 in RSD 1 with neighborhood estimate:5
0.52773393836 TestStationaryWorld.misc[0].app[1].app : 15 in RSD 1 with neighborhood estimate:5
0.52773393836 TestStationaryWorld.misc[0].app[1].app : 15 in RSD 1 with neighborhood estimate:5
0.528384761833 TestStationaryWorld.misc[0].app[1].app : 15 in RSD 1 with neighborhood estimate:5
0.551130750025 TestStationaryWorld.misc[0].app[1].app : 15 in RSD 1 with neighborhood estimate:5
0.551130750025 TestStationaryWorld.misc[0].app[1].app : 15 in RSD 1 with neighborhood estimate:5
0.564002946358 TestStationaryWorld.misc[0].app[1].app : 15 in RSD 1 with neighborhood estimate:5
0.651819797973 TestStationaryWorld.misc[0].app[1].app : 15 in RSD 1 with neighborhood estimate:5
0.651819797973 TestStationaryWorld.misc[0].app[1].app : 15 in RSD 1 with neighborhood estimate:5
0.663106240615 TestStationaryWorld.misc[0].app[1].app : 15 in RSD 1 with neighborhood estimate:5
0.67727479261 TestStationaryWorld.misc[0].app[1].app : 15 in RSD 1 with neighborhood estimate:5
0.678939011317 TestStationaryWorld.misc[0].app[1].app : 15 in RSD 1 with neighborhood estimate:5
0.678939011317 TestStationaryWorld.misc[0].app[1].app : 15 in RSD 1 with neighborhood estimate:5
0.680320749598 TestStationaryWorld.misc[0].app[1].app : 15 in RSD 1 with neighborhood estimate:5
0.752661705653 TestStationaryWorld.misc[0].app[1].app : 15 in RSD 1 with neighborhood estimate:5
0.752661705653 TestStationaryWorld.misc[0].app[1].app : 15 in RSD 1 with neighborhood estimate:5
0.760359411575 TestStationaryWorld.misc[0].app[1].app : 15 in RSD 1 with neighborhood estimate:5
0.83034878912 TestStationaryWorld.misc[0].app[1].app : 15 in RSD 1 with neighborhood estimate:5
0.83034878912 TestStationaryWorld.misc[0].app[1].app : 15 in RSD 1 with neighborhood estimate:5
0.831246777656 TestStationaryWorld.misc[0].app[1].app : 15 in RSD 1 with neighborhood estimate:5
0.851852816209 TestStationaryWorld.misc[0].app[1].app : 15 in RSD 1 with neighborhood estimate:5
0.851924629931 TestStationaryWorld.misc[0].app[1].app : 15 in RSD 1 with neighborhood estimate:5
0.851924629931 TestStationaryWorld.misc[0].app[1].app : 15 in RSD 1 with neighborhood estimate:5
0.866591608005 TestStationaryWorld.misc[0].app[1].app : 15 in RSD 1 with neighborhood estimate:5
0.95248198563 TestStationaryWorld.misc[0].app[1].app : 15 in RSD 1 with neighborhood estimate:5
0.95248198563 TestStationaryWorld.misc[0].app[1].app : 15 in RSD 1 with neighborhood estimate:5
0.969349561716 TestStationaryWorld.misc[0].app[1].app : 15 in RSD 1 with neighborhood estimate:5
0.978920093513 TestStationaryWorld.misc[0].app[1].app : 15 in RSD 1 with neighborhood estimate:5
0.97919284566 TestStationaryWorld.misc[0].app[1].app : 15 in RSD 1 with neighborhood estimate:5
0.97919857341 TestStationaryWorld.misc[0].app[1].app : 15 in RSD 1 with neighborhood estimate:5
0.980111519216 TestStationaryWorld.misc[0].app[1].app : 15 in RSD 1 with neighborhood estimate:5
0.980305703828 TestStationaryWorld.misc[0].app[1].app : 15 in RSD 1 with neighborhood estimate:5
0.980621686129 TestStationaryWorld.misc[0].app[1].app : 15 in RSD 1 with neighborhood estimate:5
0.980621686129 TestStationaryWorld.misc[0].app[1].app : 15 in RSD 1 with neighborhood estimate:5
0.982498084431 TestStationaryWorld.misc[0].app[1].app : 15 in RSD 1 with neighborhood estimate:5
1.051810712895 TestStationaryWorld.misc[0].app[1].app : 15 in RSD 1 with neighborhood estimate:5
1.05236148117 TestStationaryWorld.misc[0].app[1].app : 15 in RSD 1 with neighborhood estimate:5
1.05236148117 TestStationaryWorld.misc[0].app[1].app : 15 in RSD 1 with neighborhood estimate:5
1.068856411458 TestStationaryWorld.misc[0].app[1].app : 15 in RSD 1 with neighborhood estimate:5
1.129601964981 TestStationaryWorld.misc[0].app[1].app : 15 in RSD 1 with neighborhood estimate:5
1.130354712478 TestStationaryWorld.misc[0].app[1].app : 15 in RSD 1 with neighborhood estimate:5
1.130354712478 TestStationaryWorld.misc[0].app[1].app : 15 in RSD 1 with neighborhood estimate:5
1.132253046706 TestStationaryWorld.misc[0].app[1].app : 15 in RSD 1 with neighborhood estimate:5
1.15136372525 TestStationaryWorld.misc[0].app[1].app : 15 in RSD 1 with neighborhood estimate:5
1.15258346551 TestStationaryWorld.misc[0].app[1].app : 15 in RSD 1 with neighborhood estimate:5
1.15258346551 TestStationaryWorld.misc[0].app[1].app : 15 in RSD 1 with neighborhood estimate:5
1.169683311943 TestStationaryWorld.misc[0].app[1].app : 15 in RSD 1 with neighborhood estimate:5
1.253514407917 TestStationaryWorld.misc[0].app[1].app : 15 in RSD 1 with neighborhood estimate:5
1.253514407917 TestStationaryWorld.misc[0].app[1].app : 15 in RSD 1 with neighborhood estimate:5
1.262250299036 TestStationaryWorld.misc[0].app[1].app : 15 in RSD 1 with neighborhood estimate:5
1.279368298319 TestStationaryWorld.misc[0].app[1].app : 15 in RSD 1 with neighborhood estimate:5
1.27944401334 TestStationaryWorld.misc[0].app[1].app : 15 in RSD 1 with neighborhood estimate:5
1.279725438757 TestStationaryWorld.misc[0].app[1].app : 15 in RSD 1 with neighborhood estimate:5
1.280908501424 TestStationaryWorld.misc[0].app[1].app : 15 in RSD 1 with neighborhood estimate:5
1.280942098427 TestStationaryWorld.misc[0].app[1].app : 15 in RSD 1 with neighborhood estimate:5
1.280942098427 TestStationaryWorld.misc[0].app[1].app : 15 in RSD 1 with neighborhood estimate:5
1.282343942231 TestStationaryWorld.misc[0].app[1].app : 15 in RSD 1 with neighborhood estimate:5
1.354154543292 TestStationaryWorld.misc[0].app[1].app : 15 in RSD 1 with neighborhood estimate:5
1.354154543292 TestStationaryWorld.misc[0].app[1].app : 15 in RSD 1 with neighborhood estimate:5
1.369800880589 TestStationaryWorld.misc[0].app[1].app : 15 in RSD 1 with neighborhood estimate:5
1.43234250587 TestStationaryWorld.misc[0].app[1].app : 15 in RSD 1 with neighborhood estimate:5
1.43234250587 TestStationaryWorld.misc[0].app[1].app : 15 in RSD 1 with neighborhood estimate:5
1.434683496577 TestStationaryWorld.misc[0].app[1].app : 15 in RSD 1 with neighborhood estimate:5
1.454030684405 TestStationaryWorld.misc[0].app[1].app : 15 in RSD 1 with neighborhood estimate:5
1.454030684405 TestStationaryWorld.misc[0].app[1].app : 15 in RSD 1 with neighborhood estimate:5
1.464369375699 TestStationaryWorld.misc[0].app[1].app : 15 in RSD 1 with neighborhood estimate:5
1.553264452785 TestStationaryWorld.misc[0].app[1].app : 15 in RSD 1 with neighborhood estimate:5
1.555029455573 TestStationaryWorld.misc[0].app[1].app : 15 in RSD 1 with neighborhood estimate:5
1.555029455573 TestStationaryWorld.misc[0].app[1].app : 15 in RSD 1 with neighborhood estimate:5
1.572031311231 TestStationaryWorld.misc[0].app[1].app : 15 in RSD 1 with neighborhood estimate:5
1.581981181931 TestStationaryWorld.misc[0].app[1].app : 15 in RSD 1 with neighborhood estimate:5
1.581981181931 TestStationaryWorld.misc[0].app[1].app : 15 in RSD 1 with neighborhood estimate:5
1.583507026946 TestStationaryWorld.misc[0].app[1].app : 15 in RSD 1 with neighborhood estimate:5
1.654322924767 TestStationaryWorld.misc[0].app[1].app : 15 in RSD 1 with neighborhood estimate:5
1.655354777925 TestStationaryWorld.misc[0].app[1].app : 15 in RSD 1 with neighborhood estimate:5
1.655354777925 TestStationaryWorld.misc[0].app[1].app : 15 in RSD 1 with neighborhood estimate:5
1.670262367611 TestStationaryWorld.misc[0].app[1].app : 15 in RSD 1 with neighborhood estimate:5
1.7318908499 TestStationaryWorld.misc[0].app[1].app : 15 in RSD 1 with neighborhood estimate:5
1.732720340617 TestStationaryWorld.misc[0].app[1].app : 15 in RSD 1 with neighborhood estimate:5
1.733197363648 TestStationaryWorld.misc[0].app[1].app : 15 in RSD 1 with neighborhood estimate:5
1.733197363648 TestStationaryWorld.misc[0].app[1].app : 15 in RSD 1 with neighborhood estimate:5
1.735423966531 TestStationaryWorld.misc[0].app[1].app : 15 in RSD 1 with neighborhood estimate:5
1.754474396323 TestStationaryWorld.misc[0].app[1].app : 15 in RSD 1 with neighborhood estimate:6
1.754676732501 TestStationaryWorld.misc[0].app[1].app : 15 in RSD 1 with neighborhood estimate:6
1.755555697557 TestStationaryWorld.misc[0].app[1].app : 15 in RSD 1 with neighborhood estimate:6
1.755555697557 TestStationaryWorld.misc[0].app[1].app : 15 in RSD 1 with neighborhood estimate:6
1.768033171399 TestStationaryWorld.misc[0].app[1].app : 15 in RSD 1 with neighborhood estimate:6
1.855756329605 TestStationaryWorld.misc[0].app[1].app : 15 in RSD 1 with neighborhood estimate:6
1.855809471635 TestStationaryWorld.misc[0].app[1].app : 15 in RSD 1 with neighborhood estimate:6
1.855809471635 TestStationaryWorld.misc[0].app[1].app : 15 in RSD 1 with neighborhood estimate:6
1.873513685355 TestStationaryWorld.misc[0].app[1].app : 15 in RSD 1 with neighborhood estimate:6
1.882497835975 TestStationaryWorld.misc[0].app[1].app : 15 in RSD 1 with neighborhood estimate:6
1.884640549211 TestStationaryWorld.misc[0].app[1].app : 15 in RSD 1 with neighborhood estimate:6
1.884640549211 TestStationaryWorld.misc[0].app[1].app : 15 in RSD 1 with neighborhood estimate:6
1.886449957462 TestStationaryWorld.misc[0].app[1].app : 15 in RSD 1 with neighborhood estimate:6
1.956782777362 TestStationaryWorld.misc[0].app[1].app : 15 in RSD 1 with neighborhood estimate:6
1.956782777362 TestStationaryWorld.misc[0].app[1].app : 15 in RSD 1 with neighborhood estimate:6
1.965363753627 TestStationaryWorld.misc[0].app[1].app : 15 in RSD 1 with neighborhood estimate:6
2.033276307406 TestStationaryWorld.misc[0].app[1].app : 15 in RSD 1 with neighborhood estimate:6
2.036116961254 TestStationaryWorld.misc[0].app[1].app : 15 in RSD 1 with neighborhood estimate:6
2.036116961254 TestStationaryWorld.misc[0].app[1].app : 15 in RSD 1 with neighborhood estimate:6
2.039150417414 TestStationaryWorld.misc[0].app[1].app : 15 in RSD 1 with neighborhood estimate:6
2.057710248256 TestStationaryWorld.misc[0].app[1].app : 15 in RSD 1 with neighborhood estimate:6
2.057710248256 TestStationaryWorld.misc[0].app[1].app : 15 in RSD 1 with neighborhood estimate:6
2.07929455276 TestStationaryWorld.misc[0].app[1].app : 15 in RSD 1 with neighborhood estimate:6
2.157526695638 TestStationaryWorld.misc[0].app[1].app : 15 in RSD 1 with neighborhood estimate:6
2.158142832647 TestStationaryWorld.misc[0].app[1].app : 15 in RSD 1 with neighborhood estimate:6
2.158142832647 TestStationaryWorld.misc[0].app[1].app : 15 in RSD 1 with neighborhood estimate:6
2.178678376236 TestStationaryWorld.misc[0].app[1].app : 15 in RSD 1 with neighborhood estimate:6
2.186401324486 TestStationaryWorld.misc[0].app[1].app : 15 in RSD 1 with neighborhood estimate:6
2.186997029494 TestStationaryWorld.misc[0].app[1].app : 15 in RSD 1 with neighborhood estimate:6
2.186997029494 TestStationaryWorld.misc[0].app[1].app : 15 in RSD 1 with neighborhood estimate:6
2.192724910117 TestStationaryWorld.misc[0].app[1].app : 15 in RSD 1 with neighborhood estimate:6
2.258244837298 TestStationaryWorld.misc[0].app[1].app : 15 in RSD 1 with neighborhood estimate:6
2.258244837298 TestStationaryWorld.misc[0].app[1].app : 15 in RSD 1 with neighborhood estimate:6
2.279539866977 TestStationaryWorld.misc[0].app[1].app : 15 in RSD 1 with neighborhood estimate:6
2.337833012839 TestStationaryWorld.misc[0].app[1].app : 15 in RSD 1 with neighborhood estimate:6
2.337833012839 TestStationaryWorld.misc[0].app[1].app : 15 in RSD 1 with neighborhood estimate:6
2.342194108424 TestStationaryWorld.misc[0].app[1].app : 15 in RSD 1 with neighborhood estimate:6
2.357943832977 TestStationaryWorld.misc[0].app[1].app : 15 in RSD 1 with neighborhood estimate:6
2.357943832977 TestStationaryWorld.misc[0].app[1].app : 15 in RSD 1 with neighborhood estimate:6
2.365585245107 TestStationaryWorld.misc[0].app[1].app : 15 in RSD 1 with neighborhood estimate:6
2.458924330334 TestStationaryWorld.misc[0].app[1].app : 15 in RSD 1 with neighborhood estimate:6
2.458924330334 TestStationaryWorld.misc[0].app[1].app : 15 in RSD 1 with neighborhood estimate:6
2.472173616813 TestStationaryWorld.misc[0].app[1].app : 15 in RSD 1 with neighborhood estimate:6
2.488809183143 TestStationaryWorld.misc[0].app[1].app : 15 in RSD 1 with neighborhood estimate:6
2.489062912936 TestStationaryWorld.misc[0].app[1].app : 15 in RSD 1 with neighborhood estimate:6
2.489062912936 TestStationaryWorld.misc[0].app[1].app : 15 in RSD 1 with neighborhood estimate:6
2.492355069155 TestStationaryWorld.misc[0].app[1].app : 15 in RSD 1 with neighborhood estimate:6

%contains: stdout
<!> Simulation time limit reached -- at t=2.5s
