%description:
DcDMap sends data after neighborhood table is updated. 
Note: If this test fails, check that the CrowNet patch to LtePhyUeD2D.cc in Simu5G is integrated
which implements the separation of resource domains, i.e. guarantees that
D2D packets sent in RSDs other than the own RSD are ignored.

%file: package.ned 
// 
// empty: no namespace
//

%inifile: omnetpp.ini
[General]
network = crownet.test.omnetpp.lib.TestStationaryWorld
ned-path = ../../lib
include ../lib/default_testConfig.ini
**.vector-recording = true
**.scalar-recording = true
**.routingRecorder.enabled = false

[Config final]
extends = enb_count_n2, stationary_n8_enb2, m7_handover, _default, D2D_General, RsdNeighborhoodCount,
*.misc[0].app[*].app.cmdenv-log-level = debug
*.misc[0].app[*].scheduler.cmdenv-log-level = debug
**.appendResourceSharingDomainId = true
**.cmdenv-log-level = off
sim-time-limit= 2500ms

%postrun-command: grep -E "^.*TestStationaryWorld\.misc\[0\].app\[1\].app.*RSD" test.out > test1.out

%contains: test1.out
0.003486473831 TestStationaryWorld.misc[0].app[1].app : 15 in RSD 1 with neighborhood estimate:0
0.012125361546 TestStationaryWorld.misc[0].app[1].app : 15 in RSD 1 with neighborhood estimate:0
0.049801865546 TestStationaryWorld.misc[0].app[1].app : 15 in RSD 1 with neighborhood estimate:0
0.049801865546 TestStationaryWorld.misc[0].app[1].app : 15 in RSD 1 with neighborhood estimate:0
0.074536968836 TestStationaryWorld.misc[0].app[1].app : 15 in RSD 1 with neighborhood estimate:3
0.075092098081 TestStationaryWorld.misc[0].app[1].app : 15 in RSD 1 with neighborhood estimate:3
0.075717689469 TestStationaryWorld.misc[0].app[1].app : 15 in RSD 1 with neighborhood estimate:3
0.075717689469 TestStationaryWorld.misc[0].app[1].app : 15 in RSD 1 with neighborhood estimate:3
0.149838730166 TestStationaryWorld.misc[0].app[1].app : 15 in RSD 1 with neighborhood estimate:3
0.150726105085 TestStationaryWorld.misc[0].app[1].app : 15 in RSD 1 with neighborhood estimate:3
0.150726105085 TestStationaryWorld.misc[0].app[1].app : 15 in RSD 1 with neighborhood estimate:3
0.151896260875 TestStationaryWorld.misc[0].app[1].app : 15 in RSD 1 with neighborhood estimate:3
0.224606283671 TestStationaryWorld.misc[0].app[1].app : 15 in RSD 1 with neighborhood estimate:5
0.226490477375 TestStationaryWorld.misc[0].app[1].app : 15 in RSD 1 with neighborhood estimate:5
0.226490477375 TestStationaryWorld.misc[0].app[1].app : 15 in RSD 1 with neighborhood estimate:5
0.227196893519 TestStationaryWorld.misc[0].app[1].app : 15 in RSD 1 with neighborhood estimate:5
0.250693357692 TestStationaryWorld.misc[0].app[1].app : 15 in RSD 1 with neighborhood estimate:5
0.250693357692 TestStationaryWorld.misc[0].app[1].app : 15 in RSD 1 with neighborhood estimate:5
0.255533814925 TestStationaryWorld.misc[0].app[1].app : 15 in RSD 1 with neighborhood estimate:5
0.350830477028 TestStationaryWorld.misc[0].app[1].app : 15 in RSD 1 with neighborhood estimate:5
0.350830477028 TestStationaryWorld.misc[0].app[1].app : 15 in RSD 1 with neighborhood estimate:5
0.36227226415 TestStationaryWorld.misc[0].app[1].app : 15 in RSD 1 with neighborhood estimate:5
0.375852987487 TestStationaryWorld.misc[0].app[1].app : 15 in RSD 1 with neighborhood estimate:5
0.377293095112 TestStationaryWorld.misc[0].app[1].app : 15 in RSD 1 with neighborhood estimate:5
0.377293095112 TestStationaryWorld.misc[0].app[1].app : 15 in RSD 1 with neighborhood estimate:5
0.378889830836 TestStationaryWorld.misc[0].app[1].app : 15 in RSD 1 with neighborhood estimate:5
0.451159658511 TestStationaryWorld.misc[0].app[1].app : 15 in RSD 1 with neighborhood estimate:5
0.451159658511 TestStationaryWorld.misc[0].app[1].app : 15 in RSD 1 with neighborhood estimate:5
0.462266258912 TestStationaryWorld.misc[0].app[1].app : 15 in RSD 1 with neighborhood estimate:5
0.527803811929 TestStationaryWorld.misc[0].app[1].app : 15 in RSD 1 with neighborhood estimate:5
0.527941166861 TestStationaryWorld.misc[0].app[1].app : 15 in RSD 1 with neighborhood estimate:5
0.527941166861 TestStationaryWorld.misc[0].app[1].app : 15 in RSD 1 with neighborhood estimate:5
0.529687809346 TestStationaryWorld.misc[0].app[1].app : 15 in RSD 1 with neighborhood estimate:5
0.551101122816 TestStationaryWorld.misc[0].app[1].app : 15 in RSD 1 with neighborhood estimate:5
0.551259079007 TestStationaryWorld.misc[0].app[1].app : 15 in RSD 1 with neighborhood estimate:5
0.551929282299 TestStationaryWorld.misc[0].app[1].app : 15 in RSD 1 with neighborhood estimate:5
0.551929282299 TestStationaryWorld.misc[0].app[1].app : 15 in RSD 1 with neighborhood estimate:5
0.560878342323 TestStationaryWorld.misc[0].app[1].app : 15 in RSD 1 with neighborhood estimate:5
0.651512005363 TestStationaryWorld.misc[0].app[1].app : 15 in RSD 1 with neighborhood estimate:5
0.652095566106 TestStationaryWorld.misc[0].app[1].app : 15 in RSD 1 with neighborhood estimate:5
0.65228358408 TestStationaryWorld.misc[0].app[1].app : 15 in RSD 1 with neighborhood estimate:5
0.65228358408 TestStationaryWorld.misc[0].app[1].app : 15 in RSD 1 with neighborhood estimate:5
0.659614147223 TestStationaryWorld.misc[0].app[1].app : 15 in RSD 1 with neighborhood estimate:5
0.679057072064 TestStationaryWorld.misc[0].app[1].app : 15 in RSD 1 with neighborhood estimate:5
0.679057072064 TestStationaryWorld.misc[0].app[1].app : 15 in RSD 1 with neighborhood estimate:5
0.682246207792 TestStationaryWorld.misc[0].app[1].app : 15 in RSD 1 with neighborhood estimate:5
0.753280472171 TestStationaryWorld.misc[0].app[1].app : 15 in RSD 1 with neighborhood estimate:5
0.753280472171 TestStationaryWorld.misc[0].app[1].app : 15 in RSD 1 with neighborhood estimate:5
0.760121585826 TestStationaryWorld.misc[0].app[1].app : 15 in RSD 1 with neighborhood estimate:5
0.830212467937 TestStationaryWorld.misc[0].app[1].app : 15 in RSD 1 with neighborhood estimate:5
0.830212467937 TestStationaryWorld.misc[0].app[1].app : 15 in RSD 1 with neighborhood estimate:5
0.832270345272 TestStationaryWorld.misc[0].app[1].app : 15 in RSD 1 with neighborhood estimate:5
0.852419646386 TestStationaryWorld.misc[0].app[1].app : 15 in RSD 1 with neighborhood estimate:5
0.852942002157 TestStationaryWorld.misc[0].app[1].app : 15 in RSD 1 with neighborhood estimate:5
0.852942002157 TestStationaryWorld.misc[0].app[1].app : 15 in RSD 1 with neighborhood estimate:5
0.865295976103 TestStationaryWorld.misc[0].app[1].app : 15 in RSD 1 with neighborhood estimate:5
0.952342343526 TestStationaryWorld.misc[0].app[1].app : 15 in RSD 1 with neighborhood estimate:5
0.953470712443 TestStationaryWorld.misc[0].app[1].app : 15 in RSD 1 with neighborhood estimate:5
0.953470712443 TestStationaryWorld.misc[0].app[1].app : 15 in RSD 1 with neighborhood estimate:5
0.965412695773 TestStationaryWorld.misc[0].app[1].app : 15 in RSD 1 with neighborhood estimate:5
0.980223874248 TestStationaryWorld.misc[0].app[1].app : 15 in RSD 1 with neighborhood estimate:5
0.980223874248 TestStationaryWorld.misc[0].app[1].app : 15 in RSD 1 with neighborhood estimate:5
0.98426939208 TestStationaryWorld.misc[0].app[1].app : 15 in RSD 1 with neighborhood estimate:5
1.053103881271 TestStationaryWorld.misc[0].app[1].app : 15 in RSD 1 with neighborhood estimate:5
1.053763624257 TestStationaryWorld.misc[0].app[1].app : 15 in RSD 1 with neighborhood estimate:5
1.053763624257 TestStationaryWorld.misc[0].app[1].app : 15 in RSD 1 with neighborhood estimate:5
1.062122793123 TestStationaryWorld.misc[0].app[1].app : 15 in RSD 1 with neighborhood estimate:5
1.130344449275 TestStationaryWorld.misc[0].app[1].app : 15 in RSD 1 with neighborhood estimate:5
1.130914455496 TestStationaryWorld.misc[0].app[1].app : 15 in RSD 1 with neighborhood estimate:5
1.130914455496 TestStationaryWorld.misc[0].app[1].app : 15 in RSD 1 with neighborhood estimate:5
1.135608291493 TestStationaryWorld.misc[0].app[1].app : 15 in RSD 1 with neighborhood estimate:5
1.153932590239 TestStationaryWorld.misc[0].app[1].app : 15 in RSD 1 with neighborhood estimate:5
1.154391941657 TestStationaryWorld.misc[0].app[1].app : 15 in RSD 1 with neighborhood estimate:5
1.154391941657 TestStationaryWorld.misc[0].app[1].app : 15 in RSD 1 with neighborhood estimate:5
1.168468860254 TestStationaryWorld.misc[0].app[1].app : 15 in RSD 1 with neighborhood estimate:5
1.253720695677 TestStationaryWorld.misc[0].app[1].app : 15 in RSD 1 with neighborhood estimate:5
1.254064642959 TestStationaryWorld.misc[0].app[1].app : 15 in RSD 1 with neighborhood estimate:5
1.254139017263 TestStationaryWorld.misc[0].app[1].app : 15 in RSD 1 with neighborhood estimate:5
1.254807964142 TestStationaryWorld.misc[0].app[1].app : 15 in RSD 1 with neighborhood estimate:5
1.254807964142 TestStationaryWorld.misc[0].app[1].app : 15 in RSD 1 with neighborhood estimate:5
1.264208617691 TestStationaryWorld.misc[0].app[1].app : 15 in RSD 1 with neighborhood estimate:5
1.281077706029 TestStationaryWorld.misc[0].app[1].app : 15 in RSD 1 with neighborhood estimate:5
1.281112526819 TestStationaryWorld.misc[0].app[1].app : 15 in RSD 1 with neighborhood estimate:5
1.281583547575 TestStationaryWorld.misc[0].app[1].app : 15 in RSD 1 with neighborhood estimate:5
1.281735488487 TestStationaryWorld.misc[0].app[1].app : 15 in RSD 1 with neighborhood estimate:5
1.281735488487 TestStationaryWorld.misc[0].app[1].app : 15 in RSD 1 with neighborhood estimate:5
1.284242092735 TestStationaryWorld.misc[0].app[1].app : 15 in RSD 1 with neighborhood estimate:5
1.354000567748 TestStationaryWorld.misc[0].app[1].app : 15 in RSD 1 with neighborhood estimate:5
1.355452130972 TestStationaryWorld.misc[0].app[1].app : 15 in RSD 1 with neighborhood estimate:5
1.355452130972 TestStationaryWorld.misc[0].app[1].app : 15 in RSD 1 with neighborhood estimate:5
1.370548495014 TestStationaryWorld.misc[0].app[1].app : 15 in RSD 1 with neighborhood estimate:5
1.430731284726 TestStationaryWorld.misc[0].app[1].app : 15 in RSD 1 with neighborhood estimate:5
1.432747691049 TestStationaryWorld.misc[0].app[1].app : 15 in RSD 1 with neighborhood estimate:5
1.432817476064 TestStationaryWorld.misc[0].app[1].app : 15 in RSD 1 with neighborhood estimate:5
1.432817476064 TestStationaryWorld.misc[0].app[1].app : 15 in RSD 1 with neighborhood estimate:5
1.436044516624 TestStationaryWorld.misc[0].app[1].app : 15 in RSD 1 with neighborhood estimate:5
1.456157019739 TestStationaryWorld.misc[0].app[1].app : 15 in RSD 1 with neighborhood estimate:5
1.456157019739 TestStationaryWorld.misc[0].app[1].app : 15 in RSD 1 with neighborhood estimate:5
1.474295453323 TestStationaryWorld.misc[0].app[1].app : 15 in RSD 1 with neighborhood estimate:5
1.555881845654 TestStationaryWorld.misc[0].app[1].app : 15 in RSD 1 with neighborhood estimate:5
1.556804784167 TestStationaryWorld.misc[0].app[1].app : 15 in RSD 1 with neighborhood estimate:5
1.556804784167 TestStationaryWorld.misc[0].app[1].app : 15 in RSD 1 with neighborhood estimate:5
1.571836948267 TestStationaryWorld.misc[0].app[1].app : 15 in RSD 1 with neighborhood estimate:5
1.584113607607 TestStationaryWorld.misc[0].app[1].app : 15 in RSD 1 with neighborhood estimate:5
1.584304674077 TestStationaryWorld.misc[0].app[1].app : 15 in RSD 1 with neighborhood estimate:5
1.584304674077 TestStationaryWorld.misc[0].app[1].app : 15 in RSD 1 with neighborhood estimate:5
1.587246419424 TestStationaryWorld.misc[0].app[1].app : 15 in RSD 1 with neighborhood estimate:5
1.657249873245 TestStationaryWorld.misc[0].app[1].app : 15 in RSD 1 with neighborhood estimate:5
1.657249873245 TestStationaryWorld.misc[0].app[1].app : 15 in RSD 1 with neighborhood estimate:5
1.668689927409 TestStationaryWorld.misc[0].app[1].app : 15 in RSD 1 with neighborhood estimate:5
1.733315823704 TestStationaryWorld.misc[0].app[1].app : 15 in RSD 1 with neighborhood estimate:5
1.734595080126 TestStationaryWorld.misc[0].app[1].app : 15 in RSD 1 with neighborhood estimate:5
1.735332740367 TestStationaryWorld.misc[0].app[1].app : 15 in RSD 1 with neighborhood estimate:5
1.735332740367 TestStationaryWorld.misc[0].app[1].app : 15 in RSD 1 with neighborhood estimate:5
1.738022844899 TestStationaryWorld.misc[0].app[1].app : 15 in RSD 1 with neighborhood estimate:5
1.756719900364 TestStationaryWorld.misc[0].app[1].app : 15 in RSD 1 with neighborhood estimate:5
1.757316064706 TestStationaryWorld.misc[0].app[1].app : 15 in RSD 1 with neighborhood estimate:5
1.757316064706 TestStationaryWorld.misc[0].app[1].app : 15 in RSD 1 with neighborhood estimate:5
1.772026881904 TestStationaryWorld.misc[0].app[1].app : 15 in RSD 1 with neighborhood estimate:5
1.858035271379 TestStationaryWorld.misc[0].app[1].app : 15 in RSD 1 with neighborhood estimate:5
1.858035271379 TestStationaryWorld.misc[0].app[1].app : 15 in RSD 1 with neighborhood estimate:5
1.867305378936 TestStationaryWorld.misc[0].app[1].app : 15 in RSD 1 with neighborhood estimate:5
1.886138947974 TestStationaryWorld.misc[0].app[1].app : 15 in RSD 1 with neighborhood estimate:5
1.886138947974 TestStationaryWorld.misc[0].app[1].app : 15 in RSD 1 with neighborhood estimate:5
1.891784310381 TestStationaryWorld.misc[0].app[1].app : 15 in RSD 1 with neighborhood estimate:5
1.958665213139 TestStationaryWorld.misc[0].app[1].app : 15 in RSD 1 with neighborhood estimate:5
1.958665213139 TestStationaryWorld.misc[0].app[1].app : 15 in RSD 1 with neighborhood estimate:5
1.966090554877 TestStationaryWorld.misc[0].app[1].app : 15 in RSD 1 with neighborhood estimate:5
2.035449706825 TestStationaryWorld.misc[0].app[1].app : 15 in RSD 1 with neighborhood estimate:5
2.036780108612 TestStationaryWorld.misc[0].app[1].app : 15 in RSD 1 with neighborhood estimate:5
2.036780108612 TestStationaryWorld.misc[0].app[1].app : 15 in RSD 1 with neighborhood estimate:5
2.039173381246 TestStationaryWorld.misc[0].app[1].app : 15 in RSD 1 with neighborhood estimate:5
2.058686089491 TestStationaryWorld.misc[0].app[1].app : 15 in RSD 1 with neighborhood estimate:5
2.058991883686 TestStationaryWorld.misc[0].app[1].app : 15 in RSD 1 with neighborhood estimate:5
2.058991883686 TestStationaryWorld.misc[0].app[1].app : 15 in RSD 1 with neighborhood estimate:5
2.066141656118 TestStationaryWorld.misc[0].app[1].app : 15 in RSD 1 with neighborhood estimate:5
2.15860026675 TestStationaryWorld.misc[0].app[1].app : 15 in RSD 1 with neighborhood estimate:5
2.158620987682 TestStationaryWorld.misc[0].app[1].app : 15 in RSD 1 with neighborhood estimate:5
2.158620987682 TestStationaryWorld.misc[0].app[1].app : 15 in RSD 1 with neighborhood estimate:5
2.166479662632 TestStationaryWorld.misc[0].app[1].app : 15 in RSD 1 with neighborhood estimate:5
2.187470958299 TestStationaryWorld.misc[0].app[1].app : 15 in RSD 1 with neighborhood estimate:5
2.187470958299 TestStationaryWorld.misc[0].app[1].app : 15 in RSD 1 with neighborhood estimate:5
2.189854600438 TestStationaryWorld.misc[0].app[1].app : 15 in RSD 1 with neighborhood estimate:5
2.259395260093 TestStationaryWorld.misc[0].app[1].app : 15 in RSD 1 with neighborhood estimate:5
2.259395260093 TestStationaryWorld.misc[0].app[1].app : 15 in RSD 1 with neighborhood estimate:5
2.269085200421 TestStationaryWorld.misc[0].app[1].app : 15 in RSD 1 with neighborhood estimate:5
2.336743136632 TestStationaryWorld.misc[0].app[1].app : 15 in RSD 1 with neighborhood estimate:5
2.338249796637 TestStationaryWorld.misc[0].app[1].app : 15 in RSD 1 with neighborhood estimate:5
2.338426471785 TestStationaryWorld.misc[0].app[1].app : 15 in RSD 1 with neighborhood estimate:5
2.338426471785 TestStationaryWorld.misc[0].app[1].app : 15 in RSD 1 with neighborhood estimate:5
2.345048805115 TestStationaryWorld.misc[0].app[1].app : 15 in RSD 1 with neighborhood estimate:5
2.358680442965 TestStationaryWorld.misc[0].app[1].app : 15 in RSD 1 with neighborhood estimate:5
2.358809912206 TestStationaryWorld.misc[0].app[1].app : 15 in RSD 1 with neighborhood estimate:5
2.358937893446 TestStationaryWorld.misc[0].app[1].app : 15 in RSD 1 with neighborhood estimate:5
2.359471174572 TestStationaryWorld.misc[0].app[1].app : 15 in RSD 1 with neighborhood estimate:5
2.359471174572 TestStationaryWorld.misc[0].app[1].app : 15 in RSD 1 with neighborhood estimate:5
2.377478397529 TestStationaryWorld.misc[0].app[1].app : 15 in RSD 1 with neighborhood estimate:5
2.459881291771 TestStationaryWorld.misc[0].app[1].app : 15 in RSD 1 with neighborhood estimate:5
2.460216279754 TestStationaryWorld.misc[0].app[1].app : 15 in RSD 1 with neighborhood estimate:5
2.460216279754 TestStationaryWorld.misc[0].app[1].app : 15 in RSD 1 with neighborhood estimate:5
2.469933160671 TestStationaryWorld.misc[0].app[1].app : 15 in RSD 1 with neighborhood estimate:5
2.488298000035 TestStationaryWorld.misc[0].app[1].app : 15 in RSD 1 with neighborhood estimate:5
2.488857313403 TestStationaryWorld.misc[0].app[1].app : 15 in RSD 1 with neighborhood estimate:5
2.488857313403 TestStationaryWorld.misc[0].app[1].app : 15 in RSD 1 with neighborhood estimate:5
2.491219754767 TestStationaryWorld.misc[0].app[1].app : 15 in RSD 1 with neighborhood estimate:5

%contains: stdout
<!> Simulation time limit reached -- at t=2.5s
