%description:
MultiBeaconTest

%file: package.ned 
// 
// empty: no namespace
//

%inifile: omnetpp.ini
[General]
network = crownet.test.omnetpp.lib.TestStationaryWorld
cmdenv-express-mode = false
cmdenv-log-prefix = ""
*.misc[*].app[*].app.cmdenv-log-level = debug
*.misc[*].app[*].app.packetMeterIn.cmdenv-log-level = debug
#**.cmdenv-log-level = off
sim-time-limit= 250ms
ned-path = ../../lib
include ../lib/default_testConfig.ini
**.vector-recording = false
**.scalar-recording = false
**.routingRecorder.enabled = false

[Config final]
extends = _default, D2D_General, MultiBeacon, stationary_n1
*.misc[*].app[*].packetMeterIn.cmdenv-log-level = debug
**.cmdenv-log-level = off

*.misc[*].app[1].scheduler.generationInterval = 100ms
*.misc[*].app[1].scheduler.numberPackets = -1
*.misc[*].app[1].scheduler.amountOfData = 1000B
# update interval bigger than sim time. Do not sent data in this case
*.misc[*].app[1].app.localMapUpdateInterval = 300ms

%postrun-command: grep -E "^.*burstCreationTime =.*$" test.out > test1.out

%contains: test1.out
PerSourceInfo: Found packet belonging to NEW burst. --> Meter packet and save id. burstCreationTime = 24.963409757ms, burstIndex = 0, burstPktCount = 3, burstSize = 108 B, skipStatsProcessing = falseburstCreationTime = 24.963409757ms, burstIndex = 0, burstPktCount = 3, burstSize = 108 B, skipStatsProcessing = false packetIn: 108 B avg: 18b {id: 14 tx_t: N/A age: N/A jitter:60.21311us avg_s:18 count:1 loss_r:0}
PerAppInfo: Found packet belonging to NEW burst. --> Meter packet and. burstCreationTime = 24.963409757ms, burstIndex = 0, burstPktCount = 3, burstSize = 108 B, skipStatsProcessing = false packetIn: 108 B avg: 18b {id: 0 tx_t: N/A age: N/A jitter:60.21311us avg_s:18 count:1 loss_r:0}
PerSourceInfo: Found packet belonging to previous burst. --> Skip packet. burstCreationTime = 24.963409757ms, burstIndex = 1, burstPktCount = 3, burstSize = 108 B, skipStatsProcessing = false{id: 14 tx_t:24.963409757ms age:0s jitter:116.6629us avg_s:18 count:2 loss_r:0}
PerSourceInfo: Found packet belonging to previous burst. --> Skip packet. burstCreationTime = 24.963409757ms, burstIndex = 2, burstPktCount = 3, burstSize = 108 B, skipStatsProcessing = false{id: 14 tx_t:24.963409757ms age:0s jitter:169.584579us avg_s:18 count:3 loss_r:0}
PerSourceInfo: Found packet belonging to NEW burst. --> Meter packet and save id. burstCreationTime = 75.450771139ms, burstIndex = 0, burstPktCount = 3, burstSize = 108 B, skipStatsProcessing = falseburstCreationTime = 75.450771139ms, burstIndex = 0, burstPktCount = 3, burstSize = 108 B, skipStatsProcessing = false packetIn: 108 B avg: 34.875b {id: 14 tx_t:24.963409757ms age:50.487361382ms jitter:191.025456us avg_s:34.88 count:4 loss_r:0}
PerAppInfo: Found packet belonging to NEW burst. --> Meter packet and. burstCreationTime = 75.450771139ms, burstIndex = 0, burstPktCount = 3, burstSize = 108 B, skipStatsProcessing = false packetIn: 108 B avg: 34.875b {id: 0 tx_t:24.963409757ms age:50.487361382ms jitter:191.025456us avg_s:34.88 count:4 loss_r:0}
PerSourceInfo: Found packet belonging to previous burst. --> Skip packet. burstCreationTime = 75.450771139ms, burstIndex = 1, burstPktCount = 3, burstSize = 108 B, skipStatsProcessing = false{id: 14 tx_t:75.450771139ms age:0s jitter:211.126279us avg_s:34.88 count:5 loss_r:0}
PerSourceInfo: Found packet belonging to previous burst. --> Skip packet. burstCreationTime = 75.450771139ms, burstIndex = 2, burstPktCount = 3, burstSize = 108 B, skipStatsProcessing = false{id: 14 tx_t:75.450771139ms age:0s jitter:229.9708us avg_s:34.88 count:6 loss_r:0}
PerSourceInfo: Found packet belonging to NEW burst. --> Meter packet and save id. burstCreationTime = 125.418718235ms, burstIndex = 0, burstPktCount = 3, burstSize = 108 B, skipStatsProcessing = falseburstCreationTime = 125.418718235ms, burstIndex = 0, burstPktCount = 3, burstSize = 108 B, skipStatsProcessing = false packetIn: 108 B avg: 50.6953b {id: 14 tx_t:75.450771139ms age:49.967947096ms jitter:217.600932us avg_s:50.7 count:7 loss_r:0}
PerAppInfo: Found packet belonging to NEW burst. --> Meter packet and. burstCreationTime = 125.418718235ms, burstIndex = 0, burstPktCount = 3, burstSize = 108 B, skipStatsProcessing = false packetIn: 108 B avg: 50.6953b {id: 0 tx_t:75.450771139ms age:49.967947096ms jitter:217.600932us avg_s:50.7 count:7 loss_r:0}
PerSourceInfo: Found packet belonging to previous burst. --> Skip packet. burstCreationTime = 125.418718235ms, burstIndex = 1, burstPktCount = 3, burstSize = 108 B, skipStatsProcessing = false{id: 14 tx_t:125.418718235ms age:0s jitter:206.00418us avg_s:50.7 count:8 loss_r:0}
PerSourceInfo: Found packet belonging to previous burst. --> Skip packet. burstCreationTime = 125.418718235ms, burstIndex = 2, burstPktCount = 3, burstSize = 108 B, skipStatsProcessing = false{id: 14 tx_t:125.418718235ms age:0s jitter:195.132225us avg_s:50.7 count:9 loss_r:0}
PerSourceInfo: Found packet belonging to NEW burst. --> Meter packet and save id. burstCreationTime = 175.566884103ms, burstIndex = 0, burstPktCount = 3, burstSize = 108 B, skipStatsProcessing = falseburstCreationTime = 175.566884103ms, burstIndex = 0, burstPktCount = 3, burstSize = 108 B, skipStatsProcessing = false packetIn: 108 B avg: 65.5269b {id: 14 tx_t:125.418718235ms age:50.148165868ms jitter:192.196828us avg_s:65.53 count:10 loss_r:0}
PerAppInfo: Found packet belonging to NEW burst. --> Meter packet and. burstCreationTime = 175.566884103ms, burstIndex = 0, burstPktCount = 3, burstSize = 108 B, skipStatsProcessing = false packetIn: 108 B avg: 65.5269b {id: 0 tx_t:125.418718235ms age:50.148165868ms jitter:192.196828us avg_s:65.53 count:10 loss_r:0}
PerSourceInfo: Found packet belonging to previous burst. --> Skip packet. burstCreationTime = 175.566884103ms, burstIndex = 1, burstPktCount = 3, burstSize = 108 B, skipStatsProcessing = false{id: 14 tx_t:175.566884103ms age:0s jitter:189.444893us avg_s:65.53 count:11 loss_r:0}
PerSourceInfo: Found packet belonging to previous burst. --> Skip packet. burstCreationTime = 175.566884103ms, burstIndex = 2, burstPktCount = 3, burstSize = 108 B, skipStatsProcessing = false{id: 14 tx_t:175.566884103ms age:0s jitter:186.864954us avg_s:65.53 count:12 loss_r:0}
PerSourceInfo: Found packet belonging to NEW burst. --> Meter packet and save id. burstCreationTime = 225.740961396ms, burstIndex = 0, burstPktCount = 3, burstSize = 108 B, skipStatsProcessing = falseburstCreationTime = 225.740961396ms, burstIndex = 0, burstPktCount = 3, burstSize = 108 B, skipStatsProcessing = false packetIn: 108 B avg: 79.4314b {id: 14 tx_t:175.566884103ms age:50.174077293ms jitter:186.065725us avg_s:79.43 count:13 loss_r:0}
PerAppInfo: Found packet belonging to NEW burst. --> Meter packet and. burstCreationTime = 225.740961396ms, burstIndex = 0, burstPktCount = 3, burstSize = 108 B, skipStatsProcessing = false packetIn: 108 B avg: 79.4314b {id: 0 tx_t:175.566884103ms age:50.174077293ms jitter:186.065725us avg_s:79.43 count:13 loss_r:0}
PerSourceInfo: Found packet belonging to previous burst. --> Skip packet. burstCreationTime = 225.740961396ms, burstIndex = 1, burstPktCount = 3, burstSize = 108 B, skipStatsProcessing = false{id: 14 tx_t:225.740961396ms age:0s jitter:185.316448us avg_s:79.43 count:14 loss_r:0}
PerSourceInfo: Found packet belonging to previous burst. --> Skip packet. burstCreationTime = 225.740961396ms, burstIndex = 2, burstPktCount = 3, burstSize = 108 B, skipStatsProcessing = false{id: 14 tx_t:225.740961396ms age:0s jitter:184.614001us avg_s:79.43 count:15 loss_r:0}



%contains: stdout
<!> Simulation time limit reached -- at t=0.25s
