%description:
MultiBeaconTest

%file: package.ned 
// 
// empty: no namespace
//

%inifile: omnetpp.ini
[General]
network = crownet.test.omnetpp.lib.TestStationaryWorld
cmdenv-express-mode = false
cmdenv-log-prefix = ""
*.misc[*].app[*].app.cmdenv-log-level = debug
*.misc[*].app[*].app.packetMeterIn.cmdenv-log-level = debug
#**.cmdenv-log-level = off
sim-time-limit= 250ms
ned-path = ../../lib
include ../lib/default_testConfig.ini
**.vector-recording = false
**.scalar-recording = false
**.routingRecorder.enabled = false

[Config final]
extends = _default, D2D_General, MultiBeacon, stationary_n1
*.misc[*].app[*].packetMeterIn.cmdenv-log-level = debug
**.cmdenv-log-level = off

*.misc[*].app[1].scheduler.generationInterval = 100ms
*.misc[*].app[1].scheduler.numberPackets = -1
*.misc[*].app[1].scheduler.amountOfData = 1000B
# update interval bigger than sim time. Do not sent data in this case
*.misc[*].app[1].app.localMapUpdateInterval = 300ms

%postrun-command: grep -E "^.*burstCreationTime =.*$" test.out > test1.out

%contains: test1.out
PerSourceInfo: Found packet belonging to NEW burst. --> Meter packet and save id. burstCreationTime = 25.038642005ms, burstIndex = 0, burstPktCount = 3, burstSize = 108 B, skipStatsProcessing = falseburstCreationTime = 25.038642005ms, burstIndex = 0, burstPktCount = 3, burstSize = 108 B, skipStatsProcessing = false packetIn: 108 B avg: 18b {id: 14 tx_t: N/A age: N/A jitter:2.415125us avg_s:18 count:1 loss_r:0}
PerAppInfo: Found packet belonging to NEW burst. --> Meter packet and. burstCreationTime = 25.038642005ms, burstIndex = 0, burstPktCount = 3, burstSize = 108 B, skipStatsProcessing = false packetIn: 108 B avg: 18b {id: 0 tx_t: N/A age: N/A jitter:2.415125us avg_s:18 count:1 loss_r:0}
PerSourceInfo: Found packet belonging to previous burst. --> Skip packet. burstCreationTime = 25.038642005ms, burstIndex = 1, burstPktCount = 3, burstSize = 108 B, skipStatsProcessing = false{id: 14 tx_t:25.038642005ms age:0s jitter:4.679305us avg_s:18 count:2 loss_r:0}
PerSourceInfo: Found packet belonging to previous burst. --> Skip packet. burstCreationTime = 25.038642005ms, burstIndex = 2, burstPktCount = 3, burstSize = 108 B, skipStatsProcessing = false{id: 14 tx_t:25.038642005ms age:0s jitter:6.801974us avg_s:18 count:3 loss_r:0}
PerSourceInfo: Found packet belonging to NEW burst. --> Meter packet and save id. burstCreationTime = 74.930953117ms, burstIndex = 0, burstPktCount = 3, burstSize = 108 B, skipStatsProcessing = falseburstCreationTime = 74.930953117ms, burstIndex = 0, burstPktCount = 3, burstSize = 108 B, skipStatsProcessing = false packetIn: 108 B avg: 34.875b {id: 14 tx_t:25.038642005ms age:49.892311112ms jitter:62.146295us avg_s:34.88 count:4 loss_r:0}
PerAppInfo: Found packet belonging to NEW burst. --> Meter packet and. burstCreationTime = 74.930953117ms, burstIndex = 0, burstPktCount = 3, burstSize = 108 B, skipStatsProcessing = false packetIn: 108 B avg: 34.875b {id: 0 tx_t:25.038642005ms age:49.892311112ms jitter:62.146295us avg_s:34.88 count:4 loss_r:0}
PerSourceInfo: Found packet belonging to previous burst. --> Skip packet. burstCreationTime = 74.930953117ms, burstIndex = 1, burstPktCount = 3, burstSize = 108 B, skipStatsProcessing = false{id: 14 tx_t:74.930953117ms age:0s jitter:114.031596us avg_s:34.88 count:5 loss_r:0}
PerSourceInfo: Found packet belonging to previous burst. --> Skip packet. burstCreationTime = 74.930953117ms, burstIndex = 2, burstPktCount = 3, burstSize = 108 B, skipStatsProcessing = false{id: 14 tx_t:74.930953117ms age:0s jitter:162.674066us avg_s:34.88 count:6 loss_r:0}
PerSourceInfo: Found packet belonging to NEW burst. --> Meter packet and save id. burstCreationTime = 125.393363392ms, burstIndex = 0, burstPktCount = 3, burstSize = 108 B, skipStatsProcessing = falseburstCreationTime = 125.393363392ms, burstIndex = 0, burstPktCount = 3, burstSize = 108 B, skipStatsProcessing = false packetIn: 108 B avg: 50.6953b {id: 14 tx_t:74.930953117ms age:50.462410275ms jitter:186.106295us avg_s:50.7 count:7 loss_r:0}
PerAppInfo: Found packet belonging to NEW burst. --> Meter packet and. burstCreationTime = 125.393363392ms, burstIndex = 0, burstPktCount = 3, burstSize = 108 B, skipStatsProcessing = false packetIn: 108 B avg: 50.6953b {id: 0 tx_t:74.930953117ms age:50.462410275ms jitter:186.106295us avg_s:50.7 count:7 loss_r:0}
PerSourceInfo: Found packet belonging to previous burst. --> Skip packet. burstCreationTime = 125.393363392ms, burstIndex = 1, burstPktCount = 3, burstSize = 108 B, skipStatsProcessing = false{id: 14 tx_t:125.393363392ms age:0s jitter:208.074009us avg_s:50.7 count:8 loss_r:0}
PerSourceInfo: Found packet belonging to previous burst. --> Skip packet. burstCreationTime = 125.393363392ms, burstIndex = 2, burstPktCount = 3, burstSize = 108 B, skipStatsProcessing = false{id: 14 tx_t:125.393363392ms age:0s jitter:228.668741us avg_s:50.7 count:9 loss_r:0}
PerSourceInfo: Found packet belonging to NEW burst. --> Meter packet and save id. burstCreationTime = 175.044078536ms, burstIndex = 0, burstPktCount = 3, burstSize = 108 B, skipStatsProcessing = falseburstCreationTime = 175.044078536ms, burstIndex = 0, burstPktCount = 3, burstSize = 108 B, skipStatsProcessing = false packetIn: 108 B avg: 65.5269b {id: 14 tx_t:125.393363392ms age:49.650715144ms jitter:236.207248us avg_s:65.53 count:10 loss_r:0}
PerAppInfo: Found packet belonging to NEW burst. --> Meter packet and. burstCreationTime = 175.044078536ms, burstIndex = 0, burstPktCount = 3, burstSize = 108 B, skipStatsProcessing = false packetIn: 108 B avg: 65.5269b {id: 0 tx_t:125.393363392ms age:49.650715144ms jitter:236.207248us avg_s:65.53 count:10 loss_r:0}
PerSourceInfo: Found packet belonging to previous burst. --> Skip packet. burstCreationTime = 175.044078536ms, burstIndex = 1, burstPktCount = 3, burstSize = 108 B, skipStatsProcessing = false{id: 14 tx_t:175.044078536ms age:0s jitter:243.274599us avg_s:65.53 count:11 loss_r:0}
PerSourceInfo: Found packet belonging to previous burst. --> Skip packet. burstCreationTime = 175.044078536ms, burstIndex = 2, burstPktCount = 3, burstSize = 108 B, skipStatsProcessing = false{id: 14 tx_t:175.044078536ms age:0s jitter:249.90024us avg_s:65.53 count:12 loss_r:0}
PerSourceInfo: Found packet belonging to NEW burst. --> Meter packet and save id. burstCreationTime = 225.31921675ms, burstIndex = 0, burstPktCount = 3, burstSize = 108 B, skipStatsProcessing = falseburstCreationTime = 225.31921675ms, burstIndex = 0, burstPktCount = 3, burstSize = 108 B, skipStatsProcessing = false packetIn: 108 B avg: 79.4314b {id: 14 tx_t:175.044078536ms age:50.275138214ms jitter:251.477613us avg_s:79.43 count:13 loss_r:0}
PerAppInfo: Found packet belonging to NEW burst. --> Meter packet and. burstCreationTime = 225.31921675ms, burstIndex = 0, burstPktCount = 3, burstSize = 108 B, skipStatsProcessing = false packetIn: 108 B avg: 79.4314b {id: 0 tx_t:175.044078536ms age:50.275138214ms jitter:251.477613us avg_s:79.43 count:13 loss_r:0}
PerSourceInfo: Found packet belonging to previous burst. --> Skip packet. burstCreationTime = 225.31921675ms, burstIndex = 1, burstPktCount = 3, burstSize = 108 B, skipStatsProcessing = false{id: 14 tx_t:225.31921675ms age:0s jitter:252.956401us avg_s:79.43 count:14 loss_r:0}
PerSourceInfo: Found packet belonging to previous burst. --> Skip packet. burstCreationTime = 225.31921675ms, burstIndex = 2, burstPktCount = 3, burstSize = 108 B, skipStatsProcessing = false{id: 14 tx_t:225.31921675ms age:0s jitter:254.342764us avg_s:79.43 count:15 loss_r:0}



%contains: stdout
<!> Simulation time limit reached -- at t=0.25s
