%description:
Test the NeighborhoodTable

%#--------------------------------------------------------------------------------------------------------------
%inifile: omnetpp.ini
[General]
network = crownet.test.omnetpp.lib.NeighborhoodTableTestNetwork
ned-path = ../../lib

[Config final]
sim-time-limit=10ms
*.foo.table.maxAge = 7s
*.coordConverter.typename = "OsgCoordConverterLocal"
*.coordConverter.xBound = 30.0m
*.coordConverter.yBound = 30.0m
**.cellSize = 3.0m

%#--------------------------------------------------------------------------------------------------------------
%contains: stdout
maxAge: 7
%contains: stdout
finished: simtime: 0.01
%not-contains-regex: stdout
nTable\[\d\]