%description:
Test the NeighborhoodTable



%file: Test.cc
#include "inet/queueing/function/PacketFilterFunction.h"
#include "inet/common/packet/Packet.h"
#include "crownet/neighbourhood/NeighborhoodTable.h"

namespace NeighborhoodTable_initialize2{
    class NeighborhoodTableTest : public ::crownet::NeighborhoodTable {
        void initialize(int stage) override {
            ::crownet::NeighborhoodTable::initialize(stage);
            if (stage == INITSTAGE_LOCAL){
                std::cout << "maxAge: " << this->maxAge << std::endl;
            }
        }
		
        void finish() override {
        std::cout << "finished: simtime: " << simTime() << std::endl;
        for(auto it = this->_table.cbegin(); it != _table.cend(); ++it)
        {
            std::cout << "nTable[" << it->first << "]" <<
                    " -- nodeId: " << it->second->getNodeId() <<
                    " -- timeSend: " << it->second->getSentTimePrio() << "\n";
        }
        }
    };
Define_Module(NeighborhoodTableTest);
}

%inifile: omnetpp.ini

# [General]
ned-path= ../../lib
network = crownet.test.omnetpp.lib.NeighborhoodTableTestNetwork

[Config final]
sim-time-limit=10ms
*.foo.table.maxAge = 7s
*.coordConverter.typename = "OsgCoordConverterLocal"
*.coordConverter.xBound = 30.0m
*.coordConverter.yBound = 30.0m
**.cellSize = 3.0m

%contains: stdout
maxAge: 7
%contains: stdout
finished: simtime: 0.01
%not-contains-regex: stdout
nTable\[\d\]
